<?xml version="1.0" encoding="UTF-8"?>

<configuration xmlns:xsi="http://www.w3.org/2001/XMLSchema-instance" xsi:noNamespaceSchemaLocation="http://sumo.dlr.de/xsd/sumoConfiguration.xsd">

    <input>
        <net-file value="edited.net.xml"/>
        <route-files value="person_flows.rou.xml, jeepney_routes.rou.xml, vehicle_route/randomRoutes.xml"/>
       
        <additional-files value="jeepTypes.xml"/>
    </input>
	<lateral-resolution value="0.2"/>
	<time>
        <begin value="0"/>
        <end value="7200"/>
        
        
    </time>

</configuration>