<?xml version="1.0" encoding="UTF-8"?>

<configuration xmlns:xsi="http://www.w3.org/2001/XMLSchema-instance" xsi:noNamespaceSchemaLocation="http://sumo.dlr.de/xsd/sumoConfiguration.xsd">

    <input>
        <net-file value="edited.net.xml"/>
        <route-files value="Passenger_replicate/person_flows_trad4-6.rou.xml, jeepney_routes.rou.xml, randomTrips_car3.rou.xml, randomTrips_bus3.rou.xml,randomTrips_truck3.rou.xml, randomTrips_motorcycle3.rou.xml, randomTrips_bicycle3.rou.xml"/>
       
        <additional-files value="jeepTypes.xml"/>
    </input>
	
	<time>
        <begin value="0"/>
        <end value="7200"/>
   
    </time>

</configuration>