<?xml version="1.0" encoding="UTF-8"?>

<configuration xmlns:xsi="http://www.w3.org/2001/XMLSchema-instance" xsi:noNamespaceSchemaLocation="http://sumo.dlr.de/xsd/sumoConfiguration.xsd">

    <input>
        <net-file value="fullroute.net.xml"/>
        <route-files value="neteditconfig.rou.xml,random_trips.rou.xml,pedestrian_trips.rou.xml"/>
        <additional-files value="vehicleTypes.xml"/>
    </input>
	
	<time>
        <begin value="0"/>
        <end value="10000"/>
        <step-length value="0.05"/>
    </time>

</configuration>