<?xml version="1.0" encoding="UTF-8"?>

<configuration xmlns:xsi="http://www.w3.org/2001/XMLSchema-instance" xsi:noNamespaceSchemaLocation="http://sumo.dlr.de/xsd/sumoConfiguration.xsd">

    <input>
        <net-file value="modified_fullroad.net.xml"/>
        <route-files value="passengers.rou.xml, jeepney_routes.rou.xml, randomTrips_car.rou.xml, randomTrips_bus.rou.xml,randomTrips_truck.rou.xml, randomTrips_motorcycle.rou.xml, randomTrips_bicycle.rou.xml"/>
       
        <additional-files value="jeepTypes.xml"/>
    </input>
	
	<time>
        <begin value="0"/>
        <end value="10000"/>
        <step-length value="0.05"/>
    </time>

</configuration>