<?xml version="1.0" encoding="UTF-8"?>

<configuration xmlns:xsi="http://www.w3.org/2001/XMLSchema-instance" xsi:noNamespaceSchemaLocation="http://sumo.dlr.de/xsd/sumoConfiguration.xsd">

    <input>
        <net-file value="edited.net.xml"/>
        <route-files value="Passenger_replicate/person_flows_modern7-9.rou.xml, jeepney_routes.rou.xml, randomTrips_car1.rou.xml, randomTrips_bus1.rou.xml,randomTrips_truck1.rou.xml, randomTrips_motorcycle1.rou.xml, randomTrips_bicycle1.rou.xml"/>
       
        <additional-files value="jeepTypes.xml"/>
    </input>
	<lateral-resolution value="0.2"/>
	<time>
        <begin value="0"/>
        <end value="7200"/>
        
        
    </time>

</configuration>