<?xml version="1.0" encoding="UTF-8"?>

<configuration xmlns:xsi="http://www.w3.org/2001/XMLSchema-instance" xsi:noNamespaceSchemaLocation="http://sumo.dlr.de/xsd/sumoConfiguration.xsd">

    <input>
        <net-file value="edited.net.xml"/>
        <route-files value="Passenger_replicate/person_flows_trad11-2.rou.xml, jeepney_routes.rou.xml, randomTrips_car2.rou.xml, randomTrips_bus2.rou.xml,randomTrips_truck2.rou.xml, randomTrips_motorcycle2.rou.xml, randomTrips_bicycle2.rou.xml"/>
       
        <additional-files value="jeepTypes.xml"/>
    </input>
	<lateral-resolution value="0.2"/>
	<time>
        <begin value="0"/>
        <end value="7200"/>
       
    </time>

</configuration>