<?xml version="1.0" encoding="UTF-8"?>

<configuration xmlns:xsi="http://www.w3.org/2001/XMLSchema-instance" xsi:noNamespaceSchemaLocation="http://sumo.dlr.de/xsd/sumoConfiguration.xsd">

    <input>
        <net-file value="intersection.net.xml"/>
         <route-files value="output.rou.xml"/>
        
    </input>
	
	<time>
        <begin value="0"/>
        <end value="7200"/>
        <step-length value="0.05"/>
        
    </time>

</configuration>