<routes xmlns:xsi="http://www.w3.org/2001/XMLSchema-instance" xsi:noNamespaceSchemaLocation="http://sumo.dlr.de/xsd/routes_file.xsd">
  
    
    <!-- Routes -->
    <route id="r_1" edges="29377703#0 29377703#1 29377703#2 29377703#3 29377703#4 303412427#0 303412427#1 303412427#2 303412427#3 303412427#4 303412427#5 303412427#6 303412427#7 303412427#8 303412427#9 303412427#10 303412427#11 303412427#12 303412427#13 303412427#14 303412427#15 303412427#16 303412427#17 303412427#18 303412427#19 924607338 924607337#0 924607337#1 924607337#2 924607337#3 924607337#4 615456195 615456193#0 615456193#1 615456193#2 615478345 615478344#0 615478344#1 368461882#0 368461882#1 368461882#2 694268908 923261416 694268909#0 694268909#1 1176045778 82694445#0 82694445#1 82694445#2 1176045777 82694458#0 82694458#1 575729552#0 575729552#1 4086429 4332731 745183365#0 -575729108#4 -575729108#3 -575729108#2 -575729108#1 -575729555 -940627086 -4332734#7 -4332734#6 -4332734#5 -4332734#4 -4332734#3 -4332734#2 -4332734#1 -4332734#0 -4478182 -48630242#3 -48630242#2 -48630242#1 4243614#1 685156794#0 685156794#1 706706674#0 820063579#0 820063579#1 107396681#0 107396681#4 107396681#5 107396681#6 107396681#7 1148489399#0 1148489399#1 1148489399#2 1018627463 -1076442002 -4588647#5 -4588647#4 -4588647#3 -4588647#0 -917450542 1174874706 1182394700 136822582 1174874705 161754856 917450546#0 917450546#2 4637649 1158575268 1156612124 161754854#0 161754854#1 161754854#2 136822571#1 136822571#2 136822571#3 136822574 136822584 369686026 121188635 332624272 126342419 757990549 1074607189#0 1074607189#1 119883577#1 119883577#4 119883577#5 119883577#6 119883577#7 119883577#8 119883577#9 119883577#10 5019952#0 5019952#1 5019952#2 5019952#4 5019952#5 825090426 704746733#0 -187486758#5 -187486758#1 -187486758#0 16174062#0 16174062#1 16174062#2 16174062#3 16174062#4 16174062#5 176435849 820063585 -178615165 820063587#0 820063587#1 176435850 176435844#0 176435844#1 176435844#3 176435844#4 176435844#5 176435844#6 176435844#7 820063588 820063582#0 820063582#1 945948203 54338767#0 54338767#1 54338767#2 1072039865#1 704746731#0 704746731#2 704746731#3 1171640558 20816626#0 20816626#1 310627474#0 310627474#1 310627474#2 310627474#3 310627474#4 310627474#7 1074607188 940612553 757990561 121188638 126342421 136822570 757990562 136822575 136822580#0 136822580#1 136822580#2 136822580#3 295073752#0 136822587#0 136822587#1 136822587#2 136822587#3 161754855#0 161754855#1 917450547#0 917450547#2 402897988#1 32981461 917450545 1112806233-AddedOnRampEdge 1112806233 4588647#0 4588647#3 4588647#4 4588647#5 1076442002 1018627464 4258656#0 4258656#1 4258656#2 4258656#4 729164042#1 805198994#0 805198994#1 329609972#0 329609972#1 729164041#0 729164041#1 820063578#0 820063578#1 48630242#1 48630242#2 48630242#3 4478182 4332734#0 4332734#1 4332734#2 4332734#3 4332734#4 4332734#5 4332734#6 4332734#7 940627086 575729555 575729108#1 575729108#2 575729108#3 575729108#4 745183363 745183362 745183364#0 745183364#1 745183364#2 -82694458#1 -82694458#0 -1176045777 -82694445#2 -82694445#1 -82694445#0 -1176045778 -694268909#1 -694268909#0 -923261416 -694268908 -368461882#2 -368461882#1 -368461882#0 -615478344#1 -615478344#0 -615478345 -615456193#2 -615456193#1 -615456193#0 154644778#0 154644778#1 -924607337#4 -924607337#3 -924607337#2 -924607337#1 -924607337#0 -924607338 -303412427#19 -303412427#18 -303412427#17 -303412427#16 -303412427#15 -303412427#14 -303412427#13 -303412427#12 -303412427#11 -303412427#10 -303412427#9 -303412427#8 -303412427#7 -303412427#6 -303412427#5 -303412427#4 -303412427#3 -303412427#2 -303412427#1 -303412427#0 -29377703#4 -29377703#3 -29377703#2 -29377703#1 -29377703#0"/>
    <!-- Vehicles, persons and containers (sorted by depart) -->
  
    
        <vehicle id="jeepney_1" type="traditional_jeepney" route="r_1" depart="0">
           
            <stop busStop="jposadas" duration="10"/>
            <stop busStop="quiapo" duration="10"/>
            <!-- <stop busStop="quiapo" duration="600"/> -->
        </vehicle>
    
        <vehicle id="jeepney_2" type="traditional_jeepney" route="r_1" depart="20">
            <stop busStop="jposadas" duration="600"/>
            <stop busStop="quiapo" duration="600"/>
        </vehicle>
    
        <vehicle id="jeepney_3" type="traditional_jeepney" route="r_1" depart="40">
            <stop busStop="jposadas" duration="600"/>
            <stop busStop="quiapo" duration="600"/>
        </vehicle>
    
        <vehicle id="jeepney_4" type="traditional_jeepney" route="r_1" depart="60">
            <stop busStop="jposadas" duration="600"/>
            <stop busStop="quiapo" duration="600"/>
        </vehicle>
    
        <vehicle id="jeepney_5" type="traditional_jeepney" route="r_1" depart="80">
            <stop busStop="jposadas" duration="600"/>
            <stop busStop="quiapo" duration="600"/>
        </vehicle>
    
        <vehicle id="jeepney_6" type="traditional_jeepney" route="r_1" depart="100">
            <stop busStop="jposadas" duration="600"/>
            <stop busStop="quiapo" duration="600"/>
        </vehicle>
    
        <vehicle id="jeepney_7" type="traditional_jeepney" route="r_1" depart="120">
            <stop busStop="jposadas" duration="600"/>
            <stop busStop="quiapo" duration="600"/>
        </vehicle>
    
        <vehicle id="jeepney_8" type="traditional_jeepney" route="r_1" depart="140">
            <stop busStop="jposadas" duration="600"/>
            <stop busStop="quiapo" duration="600"/>
        </vehicle>
    
        <vehicle id="jeepney_9" type="traditional_jeepney" route="r_1" depart="160">
            <stop busStop="jposadas" duration="600"/>
            <stop busStop="quiapo" duration="600"/>
        </vehicle>
    
        <vehicle id="jeepney_10" type="traditional_jeepney" route="r_1" depart="180">
            <stop busStop="jposadas" duration="600"/>
            <stop busStop="quiapo" duration="600"/>
        </vehicle>
    
        <vehicle id="jeepney_11" type="traditional_jeepney" route="r_1" depart="200">
            <stop busStop="jposadas" duration="600"/>
            <stop busStop="quiapo" duration="600"/>
        </vehicle>
    
        <vehicle id="jeepney_12" type="traditional_jeepney" route="r_1" depart="220">
            <stop busStop="jposadas" duration="600"/>
            <stop busStop="quiapo" duration="600"/>
        </vehicle>
    
        <vehicle id="jeepney_13" type="traditional_jeepney" route="r_1" depart="240">
            <stop busStop="jposadas" duration="600"/>
            <stop busStop="quiapo" duration="600"/>
        </vehicle>
    
        <vehicle id="jeepney_14" type="traditional_jeepney" route="r_1" depart="260">
            <stop busStop="jposadas" duration="600"/>
            <stop busStop="quiapo" duration="600"/>
        </vehicle>
    
        <vehicle id="jeepney_15" type="traditional_jeepney" route="r_1" depart="280">
            <stop busStop="jposadas" duration="600"/>
            <stop busStop="quiapo" duration="600"/>
        </vehicle>
    
        <vehicle id="jeepney_16" type="traditional_jeepney" route="r_1" depart="300">
            <stop busStop="jposadas" duration="600"/>
            <stop busStop="quiapo" duration="600"/>
        </vehicle>
    
        <vehicle id="jeepney_17" type="traditional_jeepney" route="r_1" depart="320">
            <stop busStop="jposadas" duration="600"/>
            <stop busStop="quiapo" duration="600"/>
        </vehicle>
    
        <vehicle id="jeepney_18" type="traditional_jeepney" route="r_1" depart="340">
            <stop busStop="jposadas" duration="600"/>
            <stop busStop="quiapo" duration="600"/>
        </vehicle>
    
        <vehicle id="jeepney_19" type="traditional_jeepney" route="r_1" depart="360">
            <stop busStop="jposadas" duration="600"/>
            <stop busStop="quiapo" duration="600"/>
        </vehicle>
    
        <vehicle id="jeepney_20" type="traditional_jeepney" route="r_1" depart="380">
            <stop busStop="jposadas" duration="600"/>
            <stop busStop="quiapo" duration="600"/>
        </vehicle>
    
        <vehicle id="jeepney_21" type="traditional_jeepney" route="r_1" depart="400">
            <stop busStop="jposadas" duration="600"/>
            <stop busStop="quiapo" duration="600"/>
        </vehicle>
    
        <vehicle id="jeepney_22" type="traditional_jeepney" route="r_1" depart="420">
            <stop busStop="jposadas" duration="600"/>
            <stop busStop="quiapo" duration="600"/>
        </vehicle>
    
        <vehicle id="jeepney_23" type="traditional_jeepney" route="r_1" depart="440">
            <stop busStop="jposadas" duration="600"/>
            <stop busStop="quiapo" duration="600"/>
        </vehicle>
    
        <vehicle id="jeepney_24" type="traditional_jeepney" route="r_1" depart="460">
            <stop busStop="jposadas" duration="600"/>
            <stop busStop="quiapo" duration="600"/>
        </vehicle>
    
        <vehicle id="jeepney_25" type="traditional_jeepney" route="r_1" depart="480">
            <stop busStop="jposadas" duration="600"/>
            <stop busStop="quiapo" duration="600"/>
        </vehicle>
    
        <vehicle id="jeepney_26" type="traditional_jeepney" route="r_1" depart="500">
            <stop busStop="jposadas" duration="600"/>
            <stop busStop="quiapo" duration="600"/>
        </vehicle>
    
        <vehicle id="jeepney_27" type="traditional_jeepney" route="r_1" depart="520">
            <stop busStop="jposadas" duration="600"/>
            <stop busStop="quiapo" duration="600"/>
        </vehicle>
    
        <vehicle id="jeepney_28" type="traditional_jeepney" route="r_1" depart="540">
            <stop busStop="jposadas" duration="600"/>
            <stop busStop="quiapo" duration="600"/>
        </vehicle>
    
        <vehicle id="jeepney_29" type="traditional_jeepney" route="r_1" depart="560">
            <stop busStop="jposadas" duration="600"/>
            <stop busStop="quiapo" duration="600"/>
        </vehicle>
    
        <vehicle id="jeepney_30" type="traditional_jeepney" route="r_1" depart="580">
            <stop busStop="jposadas" duration="600"/>
            <stop busStop="quiapo" duration="600"/>
        </vehicle>
    
        <vehicle id="jeepney_31" type="traditional_jeepney" route="r_1" depart="600">
            <stop busStop="jposadas" duration="600"/>
            <stop busStop="quiapo" duration="600"/>
        </vehicle>
    
        <vehicle id="jeepney_32" type="traditional_jeepney" route="r_1" depart="620">
            <stop busStop="jposadas" duration="600"/>
            <stop busStop="quiapo" duration="600"/>
        </vehicle>
    
        <vehicle id="jeepney_33" type="traditional_jeepney" route="r_1" depart="640">
            <stop busStop="jposadas" duration="600"/>
            <stop busStop="quiapo" duration="600"/>
        </vehicle>
    
        <vehicle id="jeepney_34" type="traditional_jeepney" route="r_1" depart="660">
            <stop busStop="jposadas" duration="600"/>
            <stop busStop="quiapo" duration="600"/>
        </vehicle>
    
        <vehicle id="jeepney_35" type="traditional_jeepney" route="r_1" depart="680">
            <stop busStop="jposadas" duration="600"/>
            <stop busStop="quiapo" duration="600"/>
        </vehicle>
    
        <vehicle id="jeepney_36" type="traditional_jeepney" route="r_1" depart="700">
            <stop busStop="jposadas" duration="600"/>
            <stop busStop="quiapo" duration="600"/>
        </vehicle>
    
        <vehicle id="jeepney_37" type="traditional_jeepney" route="r_1" depart="720">
            <stop busStop="jposadas" duration="600"/>
            <stop busStop="quiapo" duration="600"/>
        </vehicle>
    
        <vehicle id="jeepney_38" type="traditional_jeepney" route="r_1" depart="740">
            <stop busStop="jposadas" duration="600"/>
            <stop busStop="quiapo" duration="600"/>
        </vehicle>
    
        <vehicle id="jeepney_39" type="traditional_jeepney" route="r_1" depart="760">
            <stop busStop="jposadas" duration="600"/>
            <stop busStop="quiapo" duration="600"/>
        </vehicle>
    
        <vehicle id="jeepney_40" type="traditional_jeepney" route="r_1" depart="780">
            <stop busStop="jposadas" duration="600"/>
            <stop busStop="quiapo" duration="600"/>
        </vehicle>
    
        <vehicle id="jeepney_41" type="traditional_jeepney" route="r_1" depart="800">
            <stop busStop="jposadas" duration="600"/>
            <stop busStop="quiapo" duration="600"/>
        </vehicle>
    
        <vehicle id="jeepney_42" type="traditional_jeepney" route="r_1" depart="820">
            <stop busStop="jposadas" duration="600"/>
            <stop busStop="quiapo" duration="600"/>
        </vehicle>
    
        <vehicle id="jeepney_43" type="traditional_jeepney" route="r_1" depart="840">
            <stop busStop="jposadas" duration="600"/>
            <stop busStop="quiapo" duration="600"/>
        </vehicle>
    
        <vehicle id="jeepney_44" type="traditional_jeepney" route="r_1" depart="860">
            <stop busStop="jposadas" duration="600"/>
            <stop busStop="quiapo" duration="600"/>
        </vehicle>
    
        <vehicle id="jeepney_45" type="traditional_jeepney" route="r_1" depart="880">
            <stop busStop="jposadas" duration="600"/>
            <stop busStop="quiapo" duration="600"/>
        </vehicle>
    
        <vehicle id="jeepney_46" type="traditional_jeepney" route="r_1" depart="900">
            <stop busStop="jposadas" duration="600"/>
            <stop busStop="quiapo" duration="600"/>
        </vehicle>
    
        <vehicle id="jeepney_47" type="traditional_jeepney" route="r_1" depart="920">
            <stop busStop="jposadas" duration="600"/>
            <stop busStop="quiapo" duration="600"/>
        </vehicle>
    
        <vehicle id="jeepney_48" type="traditional_jeepney" route="r_1" depart="940">
            <stop busStop="jposadas" duration="600"/>
            <stop busStop="quiapo" duration="600"/>
        </vehicle>
    
        <vehicle id="jeepney_49" type="traditional_jeepney" route="r_1" depart="960">
            <stop busStop="jposadas" duration="600"/>
            <stop busStop="quiapo" duration="600"/>
        </vehicle>
    
        <vehicle id="jeepney_50" type="traditional_jeepney" route="r_1" depart="980">
            <stop busStop="jposadas" duration="600"/>
            <stop busStop="quiapo" duration="600"/>
        </vehicle>
    
        <vehicle id="jeepney_51" type="traditional_jeepney" route="r_1" depart="1000">
            <stop busStop="jposadas" duration="600"/>
            <stop busStop="quiapo" duration="600"/>
        </vehicle>
    
        <vehicle id="jeepney_52" type="traditional_jeepney" route="r_1" depart="1020">
            <stop busStop="jposadas" duration="600"/>
            <stop busStop="quiapo" duration="600"/>
        </vehicle>
    
        <vehicle id="jeepney_53" type="traditional_jeepney" route="r_1" depart="1040">
            <stop busStop="jposadas" duration="600"/>
            <stop busStop="quiapo" duration="600"/>
        </vehicle>
    
        <vehicle id="jeepney_54" type="traditional_jeepney" route="r_1" depart="1060">
            <stop busStop="jposadas" duration="600"/>
            <stop busStop="quiapo" duration="600"/>
        </vehicle>
    
        <vehicle id="jeepney_55" type="traditional_jeepney" route="r_1" depart="1080">
            <stop busStop="jposadas" duration="600"/>
            <stop busStop="quiapo" duration="600"/>
        </vehicle>
    
        <vehicle id="jeepney_56" type="traditional_jeepney" route="r_1" depart="1100">
            <stop busStop="jposadas" duration="600"/>
            <stop busStop="quiapo" duration="600"/>
        </vehicle>
    
        <vehicle id="jeepney_57" type="traditional_jeepney" route="r_1" depart="1120">
            <stop busStop="jposadas" duration="600"/>
            <stop busStop="quiapo" duration="600"/>
        </vehicle>
    
        <vehicle id="jeepney_58" type="traditional_jeepney" route="r_1" depart="1140">
            <stop busStop="jposadas" duration="600"/>
            <stop busStop="quiapo" duration="600"/>
        </vehicle>
    
        <vehicle id="jeepney_59" type="traditional_jeepney" route="r_1" depart="1160">
            <stop busStop="jposadas" duration="600"/>
            <stop busStop="quiapo" duration="600"/>
        </vehicle>
    
        <vehicle id="jeepney_60" type="traditional_jeepney" route="r_1" depart="1180">
            <stop busStop="jposadas" duration="600"/>
            <stop busStop="quiapo" duration="600"/>
        </vehicle>
    
        <vehicle id="jeepney_61" type="traditional_jeepney" route="r_1" depart="1200">
            <stop busStop="jposadas" duration="600"/>
            <stop busStop="quiapo" duration="600"/>
        </vehicle>
    
        <vehicle id="jeepney_62" type="traditional_jeepney" route="r_1" depart="1220">
            <stop busStop="jposadas" duration="600"/>
            <stop busStop="quiapo" duration="600"/>
        </vehicle>
    
        <vehicle id="jeepney_63" type="traditional_jeepney" route="r_1" depart="1240">
            <stop busStop="jposadas" duration="600"/>
            <stop busStop="quiapo" duration="600"/>
        </vehicle>
    
        <vehicle id="jeepney_64" type="traditional_jeepney" route="r_1" depart="1260">
            <stop busStop="jposadas" duration="600"/>
            <stop busStop="quiapo" duration="600"/>
        </vehicle>
    
        <vehicle id="jeepney_65" type="traditional_jeepney" route="r_1" depart="1280">
            <stop busStop="jposadas" duration="600"/>
            <stop busStop="quiapo" duration="600"/>
        </vehicle>
    
        <vehicle id="jeepney_66" type="traditional_jeepney" route="r_1" depart="1300">
            <stop busStop="jposadas" duration="600"/>
            <stop busStop="quiapo" duration="600"/>
        </vehicle>
    
        <vehicle id="jeepney_67" type="traditional_jeepney" route="r_1" depart="1320">
            <stop busStop="jposadas" duration="600"/>
            <stop busStop="quiapo" duration="600"/>
        </vehicle>
    
        <vehicle id="jeepney_68" type="traditional_jeepney" route="r_1" depart="1340">
            <stop busStop="jposadas" duration="600"/>
            <stop busStop="quiapo" duration="600"/>
        </vehicle>
    
        <vehicle id="jeepney_69" type="traditional_jeepney" route="r_1" depart="1360">
            <stop busStop="jposadas" duration="600"/>
            <stop busStop="quiapo" duration="600"/>
        </vehicle>
    
        <vehicle id="jeepney_70" type="traditional_jeepney" route="r_1" depart="1380">
            <stop busStop="jposadas" duration="600"/>
            <stop busStop="quiapo" duration="600"/>
        </vehicle>
    
        <vehicle id="jeepney_71" type="traditional_jeepney" route="r_1" depart="1400">
            <stop busStop="jposadas" duration="600"/>
            <stop busStop="quiapo" duration="600"/>
        </vehicle>
    
        <vehicle id="jeepney_72" type="traditional_jeepney" route="r_1" depart="1420">
            <stop busStop="jposadas" duration="600"/>
            <stop busStop="quiapo" duration="600"/>
        </vehicle>
    
        <vehicle id="jeepney_73" type="traditional_jeepney" route="r_1" depart="1440">
            <stop busStop="jposadas" duration="600"/>
            <stop busStop="quiapo" duration="600"/>
        </vehicle>
    
        <vehicle id="jeepney_74" type="traditional_jeepney" route="r_1" depart="1460">
            <stop busStop="jposadas" duration="600"/>
            <stop busStop="quiapo" duration="600"/>
        </vehicle>
    
        <vehicle id="jeepney_75" type="traditional_jeepney" route="r_1" depart="1480">
            <stop busStop="jposadas" duration="600"/>
            <stop busStop="quiapo" duration="600"/>
        </vehicle>
    
        <vehicle id="jeepney_76" type="traditional_jeepney" route="r_1" depart="1500">
            <stop busStop="jposadas" duration="600"/>
            <stop busStop="quiapo" duration="600"/>
        </vehicle>
    
        <vehicle id="jeepney_77" type="traditional_jeepney" route="r_1" depart="1520">
            <stop busStop="jposadas" duration="600"/>
            <stop busStop="quiapo" duration="600"/>
        </vehicle>
    
        <vehicle id="jeepney_78" type="traditional_jeepney" route="r_1" depart="1540">
            <stop busStop="jposadas" duration="600"/>
            <stop busStop="quiapo" duration="600"/>
        </vehicle>
    
        <vehicle id="jeepney_79" type="traditional_jeepney" route="r_1" depart="1560">
            <stop busStop="jposadas" duration="600"/>
            <stop busStop="quiapo" duration="600"/>
        </vehicle>
    
        <vehicle id="jeepney_80" type="traditional_jeepney" route="r_1" depart="1580">
            <stop busStop="jposadas" duration="600"/>
            <stop busStop="quiapo" duration="600"/>
        </vehicle>
    
        <vehicle id="jeepney_81" type="traditional_jeepney" route="r_1" depart="1600">
            <stop busStop="jposadas" duration="600"/>
            <stop busStop="quiapo" duration="600"/>
        </vehicle>
    
        <vehicle id="jeepney_82" type="traditional_jeepney" route="r_1" depart="1620">
            <stop busStop="jposadas" duration="600"/>
            <stop busStop="quiapo" duration="600"/>
        </vehicle>
    
        <vehicle id="jeepney_83" type="traditional_jeepney" route="r_1" depart="1640">
            <stop busStop="jposadas" duration="600"/>
            <stop busStop="quiapo" duration="600"/>
        </vehicle>
    
        <vehicle id="jeepney_84" type="traditional_jeepney" route="r_1" depart="1660">
            <stop busStop="jposadas" duration="600"/>
            <stop busStop="quiapo" duration="600"/>
        </vehicle>
    
        <vehicle id="jeepney_85" type="traditional_jeepney" route="r_1" depart="1680">
            <stop busStop="jposadas" duration="600"/>
            <stop busStop="quiapo" duration="600"/>
        </vehicle>
    
        <vehicle id="jeepney_86" type="traditional_jeepney" route="r_1" depart="1700">
            <stop busStop="jposadas" duration="600"/>
            <stop busStop="quiapo" duration="600"/>
        </vehicle>
    
        <vehicle id="jeepney_87" type="traditional_jeepney" route="r_1" depart="1720">
            <stop busStop="jposadas" duration="600"/>
            <stop busStop="quiapo" duration="600"/>
        </vehicle>
    
        <vehicle id="jeepney_88" type="traditional_jeepney" route="r_1" depart="1740">
            <stop busStop="jposadas" duration="600"/>
            <stop busStop="quiapo" duration="600"/>
        </vehicle>
    
        <vehicle id="jeepney_89" type="traditional_jeepney" route="r_1" depart="1760">
            <stop busStop="jposadas" duration="600"/>
            <stop busStop="quiapo" duration="600"/>
        </vehicle>
    
        <vehicle id="jeepney_90" type="traditional_jeepney" route="r_1" depart="1780">
            <stop busStop="jposadas" duration="600"/>
            <stop busStop="quiapo" duration="600"/>
        </vehicle>
    
        <vehicle id="jeepney_91" type="traditional_jeepney" route="r_1" depart="1800">
            <stop busStop="jposadas" duration="600"/>
            <stop busStop="quiapo" duration="600"/>
        </vehicle>
    
        <vehicle id="jeepney_92" type="traditional_jeepney" route="r_1" depart="1820">
            <stop busStop="jposadas" duration="600"/>
            <stop busStop="quiapo" duration="600"/>
        </vehicle>
    
        <vehicle id="jeepney_93" type="traditional_jeepney" route="r_1" depart="1840">
            <stop busStop="jposadas" duration="600"/>
            <stop busStop="quiapo" duration="600"/>
        </vehicle>
    
        <vehicle id="jeepney_94" type="traditional_jeepney" route="r_1" depart="1860">
            <stop busStop="jposadas" duration="600"/>
            <stop busStop="quiapo" duration="600"/>
        </vehicle>
    
        <vehicle id="jeepney_95" type="traditional_jeepney" route="r_1" depart="1880">
            <stop busStop="jposadas" duration="600"/>
            <stop busStop="quiapo" duration="600"/>
        </vehicle>
    
        <vehicle id="jeepney_96" type="traditional_jeepney" route="r_1" depart="1900">
            <stop busStop="jposadas" duration="600"/>
            <stop busStop="quiapo" duration="600"/>
        </vehicle>
    
        <vehicle id="jeepney_97" type="traditional_jeepney" route="r_1" depart="1920">
            <stop busStop="jposadas" duration="600"/>
            <stop busStop="quiapo" duration="600"/>
        </vehicle>
    
        <vehicle id="jeepney_98" type="traditional_jeepney" route="r_1" depart="1940">
            <stop busStop="jposadas" duration="600"/>
            <stop busStop="quiapo" duration="600"/>
        </vehicle>
    
        <vehicle id="jeepney_99" type="traditional_jeepney" route="r_1" depart="1960">
            <stop busStop="jposadas" duration="600"/>
            <stop busStop="quiapo" duration="600"/>
        </vehicle>
    
        <vehicle id="jeepney_100" type="traditional_jeepney" route="r_1" depart="1980">
            <stop busStop="jposadas" duration="600"/>
            <stop busStop="quiapo" duration="600"/>
        </vehicle>
    
        <vehicle id="jeepney_101" type="traditional_jeepney" route="r_1" depart="2000">
            <stop busStop="jposadas" duration="600"/>
            <stop busStop="quiapo" duration="600"/>
        </vehicle>
    
        <vehicle id="jeepney_102" type="traditional_jeepney" route="r_1" depart="2020">
            <stop busStop="jposadas" duration="600"/>
            <stop busStop="quiapo" duration="600"/>
        </vehicle>
    
        <vehicle id="jeepney_103" type="traditional_jeepney" route="r_1" depart="2040">
            <stop busStop="jposadas" duration="600"/>
            <stop busStop="quiapo" duration="600"/>
        </vehicle>
    
        <vehicle id="jeepney_104" type="traditional_jeepney" route="r_1" depart="2060">
            <stop busStop="jposadas" duration="600"/>
            <stop busStop="quiapo" duration="600"/>
        </vehicle>
    
        <vehicle id="jeepney_105" type="traditional_jeepney" route="r_1" depart="2080">
            <stop busStop="jposadas" duration="600"/>
            <stop busStop="quiapo" duration="600"/>
        </vehicle>
    
        <vehicle id="jeepney_106" type="traditional_jeepney" route="r_1" depart="2100">
            <stop busStop="jposadas" duration="600"/>
            <stop busStop="quiapo" duration="600"/>
        </vehicle>
    
        <vehicle id="jeepney_107" type="traditional_jeepney" route="r_1" depart="2120">
            <stop busStop="jposadas" duration="600"/>
            <stop busStop="quiapo" duration="600"/>
        </vehicle>
    
        <vehicle id="jeepney_108" type="traditional_jeepney" route="r_1" depart="2140">
            <stop busStop="jposadas" duration="600"/>
            <stop busStop="quiapo" duration="600"/>
        </vehicle>
    
        <vehicle id="jeepney_109" type="traditional_jeepney" route="r_1" depart="2160">
            <stop busStop="jposadas" duration="600"/>
            <stop busStop="quiapo" duration="600"/>
        </vehicle>
    
        <vehicle id="jeepney_110" type="traditional_jeepney" route="r_1" depart="2180">
            <stop busStop="jposadas" duration="600"/>
            <stop busStop="quiapo" duration="600"/>
        </vehicle>
    
        <vehicle id="jeepney_111" type="traditional_jeepney" route="r_1" depart="2200">
            <stop busStop="jposadas" duration="600"/>
            <stop busStop="quiapo" duration="600"/>
        </vehicle>
    
        <vehicle id="jeepney_112" type="traditional_jeepney" route="r_1" depart="2220">
            <stop busStop="jposadas" duration="600"/>
            <stop busStop="quiapo" duration="600"/>
        </vehicle>
    
        <vehicle id="jeepney_113" type="traditional_jeepney" route="r_1" depart="2240">
            <stop busStop="jposadas" duration="600"/>
            <stop busStop="quiapo" duration="600"/>
        </vehicle>
    
        <vehicle id="jeepney_114" type="traditional_jeepney" route="r_1" depart="2260">
            <stop busStop="jposadas" duration="600"/>
            <stop busStop="quiapo" duration="600"/>
        </vehicle>
    
        <vehicle id="jeepney_115" type="traditional_jeepney" route="r_1" depart="2280">
            <stop busStop="jposadas" duration="600"/>
            <stop busStop="quiapo" duration="600"/>
        </vehicle>
    
        <vehicle id="jeepney_116" type="traditional_jeepney" route="r_1" depart="2300">
            <stop busStop="jposadas" duration="600"/>
            <stop busStop="quiapo" duration="600"/>
        </vehicle>
    
        <vehicle id="jeepney_117" type="traditional_jeepney" route="r_1" depart="2320">
            <stop busStop="jposadas" duration="600"/>
            <stop busStop="quiapo" duration="600"/>
        </vehicle>
    
        <vehicle id="jeepney_118" type="traditional_jeepney" route="r_1" depart="2340">
            <stop busStop="jposadas" duration="600"/>
            <stop busStop="quiapo" duration="600"/>
        </vehicle>
    
        <vehicle id="jeepney_119" type="traditional_jeepney" route="r_1" depart="2360">
            <stop busStop="jposadas" duration="600"/>
            <stop busStop="quiapo" duration="600"/>
        </vehicle>
    
        <vehicle id="jeepney_120" type="traditional_jeepney" route="r_1" depart="2380">
            <stop busStop="jposadas" duration="600"/>
            <stop busStop="quiapo" duration="600"/>
        </vehicle>
    
        <vehicle id="jeepney_121" type="traditional_jeepney" route="r_1" depart="2400">
            <stop busStop="jposadas" duration="600"/>