<?xml version="1.0" ?>
<routes>
	<personFlow id="pers1_5_" begin="0" end="5000" number="2000" color="1,0,1">
		<walk from="29377703#1" busStop="jposadas"/>
		<ride busStop="quiapo" line="trad_line"/>
		<walk to="16174062#4"/>
	 </personFlow>

	<person id="person_0" depart="0.00" departLane="random" departSpeed="1.00">
		<walk edges="29377703#0" speed="1.5" color="0,1,0"/>
		<ride line="trad_line" fromEdge="29377703#0" to="29377703#1" departPos="last" color="0,0,1"/>
		<walk edges="29377703#1" speed="1.5" color="0,1,0"/>
	</person>
	<person id="person_1" depart="0.00" departLane="random" departSpeed="1.00">
		<walk edges="29377703#1" speed="1.5" color="0,1,0"/>
		<ride line="trad_line" fromEdge="29377703#1" to="29377703#2" departPos="last" color="0,0,1"/>
		<walk edges="29377703#2" speed="1.5" color="0,1,0"/>
	</person>
	<person id="person_2" depart="0.00" departLane="random" departSpeed="1.00">
		<walk from="29377703#2" busStop="jposadas" speed="1.5" color="0,1,0"/>
		<ride line="trad_line" busStop="quiapo" color="0,0,1" />
		<walk edges="16174062#4" speed="1.5" color="0,1,0"/>
	</person>
	<person id="person_3" depart="0.00" departLane="random" departSpeed="1.00">
		<walk edges="29377703#3" speed="1.5" color="0,1,0"/>
		<ride line="trad_line" fromEdge="29377703#3" to="29377703#4" departPos="last" color="0,0,1"/>
		<walk edges="29377703#4" speed="1.5" color="0,1,0"/>
	</person>
	<person id="person_4" depart="0.00" departLane="random" departSpeed="1.00">
		<walk edges="29377703#4" speed="1.5" color="0,1,0"/>
		<ride line="trad_line" fromEdge="29377703#4" to="303412427#0" departPos="last" color="0,0,1"/>
		<walk edges="303412427#0" speed="1.5" color="0,1,0"/>
	</person>
	<person id="person_5" depart="0.00" departLane="random" departSpeed="1.00">
		<walk edges="303412427#0" speed="1.5" color="0,1,0"/>
		<ride line="trad_line" fromEdge="303412427#0" to="303412427#1" departPos="last" color="0,0,1"/>
		<walk edges="303412427#1" speed="1.5" color="0,1,0"/>
	</person>
	<person id="person_6" depart="0.00" departLane="random" departSpeed="1.00">
		<walk edges="303412427#1" speed="1.5" color="0,1,0"/>
		<ride line="trad_line" fromEdge="303412427#1" to="303412427#2" departPos="last" color="0,0,1"/>
		<walk edges="303412427#2" speed="1.5" color="0,1,0"/>
	</person>
	<person id="person_7" depart="0.00" departLane="random" departSpeed="1.00">
		<walk edges="303412427#2" speed="1.5" color="0,1,0"/>
		<ride line="trad_line" fromEdge="303412427#2" to="303412427#3" departPos="last" color="0,0,1"/>
		<walk edges="303412427#3" speed="1.5" color="0,1,0"/>
	</person>
	<person id="person_8" depart="0.00" departLane="random" departSpeed="1.00">
		<walk edges="303412427#3" speed="1.5" color="0,1,0"/>
		<ride line="trad_line" fromEdge="303412427#3" to="303412427#4" departPos="last" color="0,0,1"/>
		<walk edges="303412427#4" speed="1.5" color="0,1,0"/>
	</person>
	<person id="person_9" depart="0.00" departLane="random" departSpeed="1.00">
		<walk edges="303412427#4" speed="1.5" color="0,1,0"/>
		<ride line="trad_line" fromEdge="303412427#4" to="303412427#5" departPos="last" color="0,0,1"/>
		<walk edges="303412427#5" speed="1.5" color="0,1,0"/>
	</person>
	<person id="person_10" depart="0.00" departLane="random" departSpeed="1.00">
		<walk edges="303412427#5" speed="1.5" color="0,1,0"/>
		<ride line="trad_line" fromEdge="303412427#5" to="303412427#6" departPos="last" color="0,0,1"/>
		<walk edges="303412427#6" speed="1.5" color="0,1,0"/>
	</person>
	<person id="person_11" depart="0.00" departLane="random" departSpeed="1.00">
		<walk edges="303412427#6" speed="1.5" color="0,1,0"/>
		<ride line="trad_line" fromEdge="303412427#6" to="303412427#7" departPos="last" color="0,0,1"/>
		<walk edges="303412427#7" speed="1.5" color="0,1,0"/>
	</person>
	<person id="person_12" depart="0.00" departLane="random" departSpeed="1.00">
		<walk edges="303412427#7" speed="1.5" color="0,1,0"/>
		<ride line="trad_line" fromEdge="303412427#7" to="303412427#8" departPos="last" color="0,0,1"/>
		<walk edges="303412427#8" speed="1.5" color="0,1,0"/>
	</person>
	<person id="person_13" depart="0.00" departLane="random" departSpeed="1.00">
		<walk edges="303412427#8" speed="1.5" color="0,1,0"/>
		<ride line="trad_line" fromEdge="303412427#8" to="303412427#9" departPos="last" color="0,0,1"/>
		<walk edges="303412427#9" speed="1.5" color="0,1,0"/>
	</person>
	<person id="person_14" depart="0.00" departLane="random" departSpeed="1.00">
		<walk edges="303412427#9" speed="1.5" color="0,1,0"/>
		<ride line="trad_line" fromEdge="303412427#9" to="303412427#10" departPos="last" color="0,0,1"/>
		<walk edges="303412427#10" speed="1.5" color="0,1,0"/>
	</person>
	<person id="person_15" depart="0.00" departLane="random" departSpeed="1.00">
		<walk edges="303412427#10" speed="1.5" color="0,1,0"/>
		<ride line="trad_line" fromEdge="303412427#10" to="303412427#11" departPos="last" color="0,0,1"/>
		<walk edges="303412427#11" speed="1.5" color="0,1,0"/>
	</person>
	<person id="person_16" depart="0.00" departLane="random" departSpeed="1.00">
		<walk edges="303412427#11" speed="1.5" color="0,1,0"/>
		<ride line="trad_line" fromEdge="303412427#11" to="303412427#12" departPos="last" color="0,0,1"/>
		<walk edges="303412427#12" speed="1.5" color="0,1,0"/>
	</person>
	<person id="person_17" depart="0.00" departLane="random" departSpeed="1.00">
		<walk edges="303412427#12" speed="1.5" color="0,1,0"/>
		<ride line="trad_line" fromEdge="303412427#12" to="303412427#13" departPos="last" color="0,0,1"/>
		<walk edges="303412427#13" speed="1.5" color="0,1,0"/>
	</person>
	<person id="person_18" depart="0.00" departLane="random" departSpeed="1.00">
		<walk edges="303412427#13" speed="1.5" color="0,1,0"/>
		<ride line="trad_line" fromEdge="303412427#13" to="303412427#14" departPos="last" color="0,0,1"/>
		<walk edges="303412427#14" speed="1.5" color="0,1,0"/>
	</person>
	<person id="person_19" depart="0.00" departLane="random" departSpeed="1.00">
		<walk edges="303412427#14" speed="1.5" color="0,1,0"/>
		<ride line="trad_line" fromEdge="303412427#14" to="303412427#15" departPos="last" color="0,0,1"/>
		<walk edges="303412427#15" speed="1.5" color="0,1,0"/>
	</person>
	<person id="person_20" depart="0.00" departLane="random" departSpeed="1.00">
		<walk edges="303412427#15" speed="1.5" color="0,1,0"/>
		<ride line="trad_line" fromEdge="303412427#15" to="303412427#16" departPos="last" color="0,0,1"/>
		<walk edges="303412427#16" speed="1.5" color="0,1,0"/>
	</person>
	<person id="person_21" depart="0.00" departLane="random" departSpeed="1.00">
		<walk edges="303412427#16" speed="1.5" color="0,1,0"/>
		<ride line="trad_line" fromEdge="303412427#16" to="303412427#17" departPos="last" color="0,0,1"/>
		<walk edges="303412427#17" speed="1.5" color="0,1,0"/>
	</person>
	<person id="person_22" depart="0.00" departLane="random" departSpeed="1.00">
		<walk edges="303412427#17" speed="1.5" color="0,1,0"/>
		<ride line="trad_line" fromEdge="303412427#17" to="303412427#18" departPos="last" color="0,0,1"/>
		<walk edges="303412427#18" speed="1.5" color="0,1,0"/>
	</person>
	<person id="person_23" depart="0.00" departLane="random" departSpeed="1.00">
		<walk edges="303412427#18" speed="1.5" color="0,1,0"/>
		<ride line="trad_line" fromEdge="303412427#18" to="303412427#19" departPos="last" color="0,0,1"/>
		<walk edges="303412427#19" speed="1.5" color="0,1,0"/>
	</person>
	<person id="person_24" depart="0.00" departLane="random" departSpeed="1.00">
		<walk edges="303412427#19" speed="1.5" color="0,1,0"/>
		<ride line="trad_line" fromEdge="303412427#19" to="924607338" departPos="last" color="0,0,1"/>
		<walk edges="924607338" speed="1.5" color="0,1,0"/>
	</person>
	<person id="person_25" depart="0.00" departLane="random" departSpeed="1.00">
		<walk edges="924607338" speed="1.5" color="0,1,0"/>
		<ride line="trad_line" fromEdge="924607338" to="924607337#0" departPos="last" color="0,0,1"/>
		<walk edges="924607337#0" speed="1.5" color="0,1,0"/>
	</person>
	<person id="person_26" depart="0.00" departLane="random" departSpeed="1.00">
		<walk edges="924607337#0" speed="1.5" color="0,1,0"/>
		<ride line="trad_line" fromEdge="924607337#0" to="924607337#1" departPos="last" color="0,0,1"/>
		<walk edges="924607337#1" speed="1.5" color="0,1,0"/>
	</person>
	<person id="person_27" depart="0.00" departLane="random" departSpeed="1.00">
		<walk edges="924607337#1" speed="1.5" color="0,1,0"/>
		<ride line="trad_line" fromEdge="924607337#1" to="924607337#2" departPos="last" color="0,0,1"/>
		<walk edges="924607337#2" speed="1.5" color="0,1,0"/>
	</person>
	<person id="person_28" depart="0.00" departLane="random" departSpeed="1.00">
		<walk edges="924607337#2" speed="1.5" color="0,1,0"/>
		<ride line="trad_line" fromEdge="924607337#2" to="924607337#3" departPos="last" color="0,0,1"/>
		<walk edges="924607337#3" speed="1.5" color="0,1,0"/>
	</person>
	<person id="person_29" depart="0.00" departLane="random" departSpeed="1.00">
		<walk edges="924607337#3" speed="1.5" color="0,1,0"/>
		<ride line="trad_line" fromEdge="924607337#3" to="924607337#4" departPos="last" color="0,0,1"/>
		<walk edges="924607337#4" speed="1.5" color="0,1,0"/>
	</person>
	<person id="person_30" depart="0.00" departLane="random" departSpeed="1.00">
		<walk edges="924607337#4" speed="1.5" color="0,1,0"/>
		<ride line="trad_line" fromEdge="924607337#4" to="615456195" departPos="last" color="0,0,1"/>
		<walk edges="615456195" speed="1.5" color="0,1,0"/>
	</person>
	<person id="person_31" depart="0.00" departLane="random" departSpeed="1.00">
		<walk edges="615456195" speed="1.5" color="0,1,0"/>
		<ride line="trad_line" fromEdge="615456195" to="615456193#0" departPos="last" color="0,0,1"/>
		<walk edges="615456193#0" speed="1.5" color="0,1,0"/>
	</person>
	<person id="person_32" depart="0.00" departLane="random" departSpeed="1.00">
		<walk edges="615456193#0" speed="1.5" color="0,1,0"/>
		<ride line="trad_line" fromEdge="615456193#0" to="615456193#1" departPos="last" color="0,0,1"/>
		<walk edges="615456193#1" speed="1.5" color="0,1,0"/>
	</person>
	<person id="person_33" depart="0.00" departLane="random" departSpeed="1.00">
		<walk edges="615456193#1" speed="1.5" color="0,1,0"/>
		<ride line="trad_line" fromEdge="615456193#1" to="615456193#2" departPos="last" color="0,0,1"/>
		<walk edges="615456193#2" speed="1.5" color="0,1,0"/>
	</person>
	<person id="person_34" depart="0.00" departLane="random" departSpeed="1.00">
		<walk edges="615456193#2" speed="1.5" color="0,1,0"/>
		<ride line="trad_line" fromEdge="615456193#2" to="615478345" departPos="last" color="0,0,1"/>
		<walk edges="615478345" speed="1.5" color="0,1,0"/>
	</person>
	<person id="person_35" depart="0.00" departLane="random" departSpeed="1.00">
		<walk edges="615478345" speed="1.5" color="0,1,0"/>
		<ride line="trad_line" fromEdge="615478345" to="615478344#0" departPos="last" color="0,0,1"/>
		<walk edges="615478344#0" speed="1.5" color="0,1,0"/>
	</person>
	<person id="person_36" depart="0.00" departLane="random" departSpeed="1.00">
		<walk edges="615478344#0" speed="1.5" color="0,1,0"/>
		<ride line="trad_line" fromEdge="615478344#0" to="615478344#1" departPos="last" color="0,0,1"/>
		<walk edges="615478344#1" speed="1.5" color="0,1,0"/>
	</person>
	<person id="person_37" depart="0.00" departLane="random" departSpeed="1.00">
		<walk edges="615478344#1" speed="1.5" color="0,1,0"/>
		<ride line="trad_line" fromEdge="615478344#1" to="368461882#0" departPos="last" color="0,0,1"/>
		<walk edges="368461882#0" speed="1.5" color="0,1,0"/>
	</person>
	<person id="person_38" depart="0.00" departLane="random" departSpeed="1.00">
		<walk edges="368461882#0" speed="1.5" color="0,1,0"/>
		<ride line="trad_line" fromEdge="368461882#0" to="368461882#1" departPos="last" color="0,0,1"/>
		<walk edges="368461882#1" speed="1.5" color="0,1,0"/>
	</person>
	<person id="person_39" depart="0.00" departLane="random" departSpeed="1.00">
		<walk edges="368461882#1" speed="1.5" color="0,1,0"/>
		<ride line="trad_line" fromEdge="368461882#1" to="368461882#2" departPos="last" color="0,0,1"/>
		<walk edges="368461882#2" speed="1.5" color="0,1,0"/>
	</person>
	<person id="person_40" depart="0.00" departLane="random" departSpeed="1.00">
		<walk edges="368461882#2" speed="1.5" color="0,1,0"/>
		<ride line="trad_line" fromEdge="368461882#2" to="694268908" departPos="last" color="0,0,1"/>
		<walk edges="694268908" speed="1.5" color="0,1,0"/>
	</person>
	<person id="person_41" depart="0.00" departLane="random" departSpeed="1.00">
		<walk edges="694268908" speed="1.5" color="0,1,0"/>
		<ride line="trad_line" fromEdge="694268908" to="923261416" departPos="last" color="0,0,1"/>
		<walk edges="923261416" speed="1.5" color="0,1,0"/>
	</person>
	<person id="person_42" depart="0.00" departLane="random" departSpeed="1.00">
		<walk edges="923261416" speed="1.5" color="0,1,0"/>
		<ride line="trad_line" fromEdge="923261416" to="694268909#0" departPos="last" color="0,0,1"/>
		<walk edges="694268909#0" speed="1.5" color="0,1,0"/>
	</person>
	<person id="person_43" depart="0.00" departLane="random" departSpeed="1.00">
		<walk edges="694268909#0" speed="1.5" color="0,1,0"/>
		<ride line="trad_line" fromEdge="694268909#0" to="694268909#1" departPos="last" color="0,0,1"/>
		<walk edges="694268909#1" speed="1.5" color="0,1,0"/>
	</person>
	<person id="person_44" depart="0.00" departLane="random" departSpeed="1.00">
		<walk edges="694268909#1" speed="1.5" color="0,1,0"/>
		<ride line="trad_line" fromEdge="694268909#1" to="1176045778" departPos="last" color="0,0,1"/>
		<walk edges="1176045778" speed="1.5" color="0,1,0"/>
	</person>
	<person id="person_45" depart="0.00" departLane="random" departSpeed="1.00">
		<walk edges="1176045778" speed="1.5" color="0,1,0"/>
		<ride line="trad_line" fromEdge="1176045778" to="82694445#0" departPos="last" color="0,0,1"/>
		<walk edges="82694445#0" speed="1.5" color="0,1,0"/>
	</person>
	<person id="person_46" depart="0.00" departLane="random" departSpeed="1.00">
		<walk edges="82694445#0" speed="1.5" color="0,1,0"/>
		<ride line="trad_line" fromEdge="82694445#0" to="82694445#1" departPos="last" color="0,0,1"/>
		<walk edges="82694445#1" speed="1.5" color="0,1,0"/>
	</person>
	<person id="person_47" depart="0.00" departLane="random" departSpeed="1.00">
		<walk edges="82694445#1" speed="1.5" color="0,1,0"/>
		<ride line="trad_line" fromEdge="82694445#1" to="82694445#2" departPos="last" color="0,0,1"/>
		<walk edges="82694445#2" speed="1.5" color="0,1,0"/>
	</person>
	<person id="person_48" depart="0.00" departLane="random" departSpeed="1.00">
		<walk edges="82694445#2" speed="1.5" color="0,1,0"/>
		<ride line="trad_line" fromEdge="82694445#2" to="1176045777" departPos="last" color="0,0,1"/>
		<walk edges="1176045777" speed="1.5" color="0,1,0"/>
	</person>
	<person id="person_49" depart="0.00" departLane="random" departSpeed="1.00">
		<walk edges="1176045777" speed="1.5" color="0,1,0"/>
		<ride line="trad_line" fromEdge="1176045777" to="82694458#0" departPos="last" color="0,0,1"/>
		<walk edges="82694458#0" speed="1.5" color="0,1,0"/>
	</person>
	<person id="person_50" depart="0.00" departLane="random" departSpeed="1.00">
		<walk edges="82694458#0" speed="1.5" color="0,1,0"/>
		<ride line="trad_line" fromEdge="82694458#0" to="82694458#1" departPos="last" color="0,0,1"/>
		<walk edges="82694458#1" speed="1.5" color="0,1,0"/>
	</person>
	<person id="person_51" depart="0.00" departLane="random" departSpeed="1.00">
		<walk edges="82694458#1" speed="1.5" color="0,1,0"/>
		<ride line="trad_line" fromEdge="82694458#1" to="575729552#0" departPos="last" color="0,0,1"/>
		<walk edges="575729552#0" speed="1.5" color="0,1,0"/>
	</person>
	<person id="person_52" depart="0.00" departLane="random" departSpeed="1.00">
		<walk edges="575729552#0" speed="1.5" color="0,1,0"/>
		<ride line="trad_line" fromEdge="575729552#0" to="575729552#1" departPos="last" color="0,0,1"/>
		<walk edges="575729552#1" speed="1.5" color="0,1,0"/>
	</person>
	<person id="person_53" depart="0.00" departLane="random" departSpeed="1.00">
		<walk edges="575729552#1" speed="1.5" color="0,1,0"/>
		<ride line="trad_line" fromEdge="575729552#1" to="4086429" departPos="last" color="0,0,1"/>
		<walk edges="4086429" speed="1.5" color="0,1,0"/>
	</person>
	<person id="person_54" depart="0.00" departLane="random" departSpeed="1.00">
		<walk edges="4086429" speed="1.5" color="0,1,0"/>
		<ride line="trad_line" fromEdge="4086429" to="4332731" departPos="last" color="0,0,1"/>
		<walk edges="4332731" speed="1.5" color="0,1,0"/>
	</person>
	<person id="person_55" depart="0.00" departLane="random" departSpeed="1.00">
		<walk edges="4332731" speed="1.5" color="0,1,0"/>
		<ride line="trad_line" fromEdge="4332731" to="745183365#0" departPos="last" color="0,0,1"/>
		<walk edges="745183365#0" speed="1.5" color="0,1,0"/>
	</person>
	<person id="person_56" depart="0.00" departLane="random" departSpeed="1.00">
		<walk edges="745183365#0" speed="1.5" color="0,1,0"/>
		<ride line="trad_line" fromEdge="745183365#0" to="-575729108#4" departPos="last" color="0,0,1"/>
		<walk edges="-575729108#4" speed="1.5" color="0,1,0"/>
	</person>
	<person id="person_57" depart="0.00" departLane="random" departSpeed="1.00">
		<walk edges="-575729108#4" speed="1.5" color="0,1,0"/>
		<ride line="trad_line" fromEdge="-575729108#4" to="-575729108#3" departPos="last" color="0,0,1"/>
		<walk edges="-575729108#3" speed="1.5" color="0,1,0"/>
	</person>
	<person id="person_58" depart="0.00" departLane="random" departSpeed="1.00">
		<walk edges="-575729108#3" speed="1.5" color="0,1,0"/>
		<ride line="trad_line" fromEdge="-575729108#3" to="-575729108#2" departPos="last" color="0,0,1"/>
		<walk edges="-575729108#2" speed="1.5" color="0,1,0"/>
	</person>
	<person id="person_59" depart="0.00" departLane="random" departSpeed="1.00">
		<walk edges="-575729108#2" speed="1.5" color="0,1,0"/>
		<ride line="trad_line" fromEdge="-575729108#2" to="-575729108#1" departPos="last" color="0,0,1"/>
		<walk edges="-575729108#1" speed="1.5" color="0,1,0"/>
	</person>
	<person id="person_60" depart="0.00" departLane="random" departSpeed="1.00">
		<walk edges="-575729108#1" speed="1.5" color="0,1,0"/>
		<ride line="trad_line" fromEdge="-575729108#1" to="-575729555" departPos="last" color="0,0,1"/>
		<walk edges="-575729555" speed="1.5" color="0,1,0"/>
	</person>
	<person id="person_61" depart="0.00" departLane="random" departSpeed="1.00">
		<walk edges="-575729555" speed="1.5" color="0,1,0"/>
		<ride line="trad_line" fromEdge="-575729555" to="-940627086" departPos="last" color="0,0,1"/>
		<walk edges="-940627086" speed="1.5" color="0,1,0"/>
	</person>
	<person id="person_62" depart="0.00" departLane="random" departSpeed="1.00">
		<walk edges="-940627086" speed="1.5" color="0,1,0"/>
		<ride line="trad_line" fromEdge="-940627086" to="-4332734#7" departPos="last" color="0,0,1"/>
		<walk edges="-4332734#7" speed="1.5" color="0,1,0"/>
	</person>
	<person id="person_63" depart="0.00" departLane="random" departSpeed="1.00">
		<walk edges="-4332734#7" speed="1.5" color="0,1,0"/>
		<ride line="trad_line" fromEdge="-4332734#7" to="-4332734#6" departPos="last" color="0,0,1"/>
		<walk edges="-4332734#6" speed="1.5" color="0,1,0"/>
	</person>
	<person id="person_64" depart="0.00" departLane="random" departSpeed="1.00">
		<walk edges="-4332734#6" speed="1.5" color="0,1,0"/>
		<ride line="trad_line" fromEdge="-4332734#6" to="-4332734#5" departPos="last" color="0,0,1"/>
		<walk edges="-4332734#5" speed="1.5" color="0,1,0"/>
	</person>
	<person id="person_65" depart="0.00" departLane="random" departSpeed="1.00">
		<walk edges="-4332734#5" speed="1.5" color="0,1,0"/>
		<ride line="trad_line" fromEdge="-4332734#5" to="-4332734#4" departPos="last" color="0,0,1"/>
		<walk edges="-4332734#4" speed="1.5" color="0,1,0"/>
	</person>
	<person id="person_66" depart="0.00" departLane="random" departSpeed="1.00">
		<walk edges="-4332734#4" speed="1.5" color="0,1,0"/>
		<ride line="trad_line" fromEdge="-4332734#4" to="-4332734#3" departPos="last" color="0,0,1"/>
		<walk edges="-4332734#3" speed="1.5" color="0,1,0"/>
	</person>
	<person id="person_67" depart="0.00" departLane="random" departSpeed="1.00">
		<walk edges="-4332734#3" speed="1.5" color="0,1,0"/>
		<ride line="trad_line" fromEdge="-4332734#3" to="-4332734#2" departPos="last" color="0,0,1"/>
		<walk edges="-4332734#2" speed="1.5" color="0,1,0"/>
	</person>
	<person id="person_68" depart="0.00" departLane="random" departSpeed="1.00">
		<walk edges="-4332734#2" speed="1.5" color="0,1,0"/>
		<ride line="trad_line" fromEdge="-4332734#2" to="-4332734#1" departPos="last" color="0,0,1"/>
		<walk edges="-4332734#1" speed="1.5" color="0,1,0"/>
	</person>
	<person id="person_69" depart="0.00" departLane="random" departSpeed="1.00">
		<walk edges="-4332734#1" speed="1.5" color="0,1,0"/>
		<ride line="trad_line" fromEdge="-4332734#1" to="-4332734#0" departPos="last" color="0,0,1"/>
		<walk edges="-4332734#0" speed="1.5" color="0,1,0"/>
	</person>
	<person id="person_70" depart="0.00" departLane="random" departSpeed="1.00">
		<walk edges="-4332734#0" speed="1.5" color="0,1,0"/>
		<ride line="trad_line" fromEdge="-4332734#0" to="-4478182" departPos="last" color="0,0,1"/>
		<walk edges="-4478182" speed="1.5" color="0,1,0"/>
	</person>
	<person id="person_71" depart="0.00" departLane="random" departSpeed="1.00">
		<walk edges="-4478182" speed="1.5" color="0,1,0"/>
		<ride line="trad_line" fromEdge="-4478182" to="-48630242#3" departPos="last" color="0,0,1"/>
		<walk edges="-48630242#3" speed="1.5" color="0,1,0"/>
	</person>
	<person id="person_72" depart="0.00" departLane="random" departSpeed="1.00">
		<walk edges="-48630242#3" speed="1.5" color="0,1,0"/>
		<ride line="trad_line" fromEdge="-48630242#3" to="-48630242#2" departPos="last" color="0,0,1"/>
		<walk edges="-48630242#2" speed="1.5" color="0,1,0"/>
	</person>
	<person id="person_73" depart="0.00" departLane="random" departSpeed="1.00">
		<walk edges="-48630242#2" speed="1.5" color="0,1,0"/>
		<ride line="trad_line" fromEdge="-48630242#2" to="-48630242#1" departPos="last" color="0,0,1"/>
		<walk edges="-48630242#1" speed="1.5" color="0,1,0"/>
	</person>
	<person id="person_74" depart="0.00" departLane="random" departSpeed="1.00">
		<walk edges="-48630242#1" speed="1.5" color="0,1,0"/>
		<ride line="trad_line" fromEdge="-48630242#1" to="4243614#1" departPos="last" color="0,0,1"/>
		<walk edges="4243614#1" speed="1.5" color="0,1,0"/>
	</person>
	<person id="person_75" depart="0.00" departLane="random" departSpeed="1.00">
		<walk edges="4243614#1" speed="1.5" color="0,1,0"/>
		<ride line="trad_line" fromEdge="4243614#1" to="685156794#0" departPos="last" color="0,0,1"/>
		<walk edges="685156794#0" speed="1.5" color="0,1,0"/>
	</person>
	<person id="person_76" depart="0.00" departLane="random" departSpeed="1.00">
		<walk edges="685156794#0" speed="1.5" color="0,1,0"/>
		<ride line="trad_line" fromEdge="685156794#0" to="685156794#1" departPos="last" color="0,0,1"/>
		<walk edges="685156794#1" speed="1.5" color="0,1,0"/>
	</person>
	<person id="person_77" depart="0.00" departLane="random" departSpeed="1.00">
		<walk edges="685156794#1" speed="1.5" color="0,1,0"/>
		<ride line="trad_line" fromEdge="685156794#1" to="706706674#0" departPos="last" color="0,0,1"/>
		<walk edges="706706674#0" speed="1.5" color="0,1,0"/>
	</person>
	<person id="person_78" depart="0.00" departLane="random" departSpeed="1.00">
		<walk edges="706706674#0" speed="1.5" color="0,1,0"/>
		<ride line="trad_line" fromEdge="706706674#0" to="820063579#0" departPos="last" color="0,0,1"/>
		<walk edges="820063579#0" speed="1.5" color="0,1,0"/>
	</person>
	<person id="person_79" depart="0.00" departLane="random" departSpeed="1.00">
		<walk edges="820063579#0" speed="1.5" color="0,1,0"/>
		<ride line="trad_line" fromEdge="820063579#0" to="820063579#1" departPos="last" color="0,0,1"/>
		<walk edges="820063579#1" speed="1.5" color="0,1,0"/>
	</person>
	<person id="person_80" depart="0.00" departLane="random" departSpeed="1.00">
		<walk edges="820063579#1" speed="1.5" color="0,1,0"/>
		<ride line="trad_line" fromEdge="820063579#1" to="107396681#0" departPos="last" color="0,0,1"/>
		<walk edges="107396681#0" speed="1.5" color="0,1,0"/>
	</person>
	<person id="person_81" depart="0.00" departLane="random" departSpeed="1.00">
		<walk edges="107396681#0" speed="1.5" color="0,1,0"/>
		<ride line="trad_line" fromEdge="107396681#0" to="107396681#4" departPos="last" color="0,0,1"/>
		<walk edges="107396681#4" speed="1.5" color="0,1,0"/>
	</person>
	<person id="person_82" depart="0.00" departLane="random" departSpeed="1.00">
		<walk edges="107396681#4" speed="1.5" color="0,1,0"/>
		<ride line="trad_line" fromEdge="107396681#4" to="107396681#5" departPos="last" color="0,0,1"/>
		<walk edges="107396681#5" speed="1.5" color="0,1,0"/>
	</person>
	<person id="person_83" depart="0.00" departLane="random" departSpeed="1.00">
		<walk edges="107396681#5" speed="1.5" color="0,1,0"/>
		<ride line="trad_line" fromEdge="107396681#5" to="107396681#6" departPos="last" color="0,0,1"/>
		<walk edges="107396681#6" speed="1.5" color="0,1,0"/>
	</person>
	<person id="person_84" depart="0.00" departLane="random" departSpeed="1.00">
		<walk edges="107396681#6" speed="1.5" color="0,1,0"/>
		<ride line="trad_line" fromEdge="107396681#6" to="107396681#7" departPos="last" color="0,0,1"/>
		<walk edges="107396681#7" speed="1.5" color="0,1,0"/>
	</person>
	<person id="person_85" depart="0.00" departLane="random" departSpeed="1.00">
		<walk edges="107396681#7" speed="1.5" color="0,1,0"/>
		<ride line="trad_line" fromEdge="107396681#7" to="1148489399#0" departPos="last" color="0,0,1"/>
		<walk edges="1148489399#0" speed="1.5" color="0,1,0"/>
	</person>
	<person id="person_86" depart="0.00" departLane="random" departSpeed="1.00">
		<walk edges="1148489399#0" speed="1.5" color="0,1,0"/>
		<ride line="trad_line" fromEdge="1148489399#0" to="1148489399#1" departPos="last" color="0,0,1"/>
		<walk edges="1148489399#1" speed="1.5" color="0,1,0"/>
	</person>
	<person id="person_87" depart="0.00" departLane="random" departSpeed="1.00">
		<walk edges="1148489399#1" speed="1.5" color="0,1,0"/>
		<ride line="trad_line" fromEdge="1148489399#1" to="1148489399#2" departPos="last" color="0,0,1"/>
		<walk edges="1148489399#2" speed="1.5" color="0,1,0"/>
	</person>
	<person id="person_88" depart="0.00" departLane="random" departSpeed="1.00">
		<walk edges="1148489399#2" speed="1.5" color="0,1,0"/>
		<ride line="trad_line" fromEdge="1148489399#2" to="1018627463" departPos="last" color="0,0,1"/>
		<walk edges="1018627463" speed="1.5" color="0,1,0"/>
	</person>
	<person id="person_89" depart="0.00" departLane="random" departSpeed="1.00">
		<walk edges="1018627463" speed="1.5" color="0,1,0"/>
		<ride line="trad_line" fromEdge="1018627463" to="-1076442002" departPos="last" color="0,0,1"/>
		<walk edges="-1076442002" speed="1.5" color="0,1,0"/>
	</person>
	<person id="person_90" depart="0.00" departLane="random" departSpeed="1.00">
		<walk edges="-1076442002" speed="1.5" color="0,1,0"/>
		<ride line="trad_line" fromEdge="-1076442002" to="-4588647#5" departPos="last" color="0,0,1"/>
		<walk edges="-4588647#5" speed="1.5" color="0,1,0"/>
	</person>
	<person id="person_91" depart="0.00" departLane="random" departSpeed="1.00">
		<walk edges="-4588647#5" speed="1.5" color="0,1,0"/>
		<ride line="trad_line" fromEdge="-4588647#5" to="-4588647#4" departPos="last" color="0,0,1"/>
		<walk edges="-4588647#4" speed="1.5" color="0,1,0"/>
	</person>
	<person id="person_92" depart="0.00" departLane="random" departSpeed="1.00">
		<walk edges="-4588647#4" speed="1.5" color="0,1,0"/>
		<ride line="trad_line" fromEdge="-4588647#4" to="-4588647#3" departPos="last" color="0,0,1"/>
		<walk edges="-4588647#3" speed="1.5" color="0,1,0"/>
	</person>
	<person id="person_93" depart="0.00" departLane="random" departSpeed="1.00">
		<walk edges="-4588647#3" speed="1.5" color="0,1,0"/>
		<ride line="trad_line" fromEdge="-4588647#3" to="-4588647#0" departPos="last" color="0,0,1"/>
		<walk edges="-4588647#0" speed="1.5" color="0,1,0"/>
	</person>
	<person id="person_94" depart="0.00" departLane="random" departSpeed="1.00">
		<walk edges="-4588647#0" speed="1.5" color="0,1,0"/>
		<ride line="trad_line" fromEdge="-4588647#0" to="-917450542" departPos="last" color="0,0,1"/>
		<walk edges="-917450542" speed="1.5" color="0,1,0"/>
	</person>
	<person id="person_95" depart="0.00" departLane="random" departSpeed="1.00">
		<walk edges="-917450542" speed="1.5" color="0,1,0"/>
		<ride line="trad_line" fromEdge="-917450542" to="1174874706" departPos="last" color="0,0,1"/>
		<walk edges="1174874706" speed="1.5" color="0,1,0"/>
	</person>
	<person id="person_96" depart="0.00" departLane="random" departSpeed="1.00">
		<walk edges="1174874706" speed="1.5" color="0,1,0"/>
		<ride line="trad_line" fromEdge="1174874706" to="1182394700" departPos="last" color="0,0,1"/>
		<walk edges="1182394700" speed="1.5" color="0,1,0"/>
	</person>
	<person id="person_97" depart="0.00" departLane="random" departSpeed="1.00">
		<walk edges="1182394700" speed="1.5" color="0,1,0"/>
		<ride line="trad_line" fromEdge="1182394700" to="136822582" departPos="last" color="0,0,1"/>
		<walk edges="136822582" speed="1.5" color="0,1,0"/>
	</person>
	<person id="person_98" depart="0.00" departLane="random" departSpeed="1.00">
		<walk edges="136822582" speed="1.5" color="0,1,0"/>
		<ride line="trad_line" fromEdge="136822582" to="1174874705" departPos="last" color="0,0,1"/>
		<walk edges="1174874705" speed="1.5" color="0,1,0"/>
	</person>
	<person id="person_99" depart="0.00" departLane="random" departSpeed="1.00">
		<walk edges="1174874705" speed="1.5" color="0,1,0"/>
		<ride line="trad_line" fromEdge="1174874705" to="161754856" departPos="last" color="0,0,1"/>
		<walk edges="161754856" speed="1.5" color="0,1,0"/>
	</person>