<?xml version='1.0' encoding='utf-8'?>
<routes><person id="passenger_0"><route edges="161754854#1 940627086" /></person><person id="passenger_1"><route edges="1074607189#0 1156612124" /></person><person id="passenger_2"><route edges="-48630242#2 29377703#4" /></person><person id="passenger_3"><route edges="16174062#1 4588647#5" /></person><person id="passenger_4"><route edges="-82694445#1 -82694445#1" /></person><person id="passenger_5"><route edges="917450547#0 -303412427#7" /></person><person id="passenger_6"><route edges="-29377703#1 329609972#1" /></person><person id="passenger_7"><route edges="745183364#1 136822580#2" /></person><person id="passenger_8"><route edges="-1176045778 -4478182" /></person><person id="passenger_9"><route edges="-694268909#1 4332734#3" /></person></routes>