<?xml version="1.0" ?>
<routes>
  <person id="person_210" depart="0" departLane="random" departSpeed="1.00">
    <walk from="-4588647#5" busStop="-4588647#5" speed="1.5" color="0,1,0"/>
    <ride line="trad_line" busStop="-4588647#5" to="136822580#3" color="0,0,1"/>
    <walk edges="136822580#3" speed="1.5" color="0,1,0"/>
  </person>
  <person id="person_181" depart="2" departLane="random" departSpeed="1.00">
    <walk from="-924607337#1" busStop="-924607337#1" speed="1.5" color="0,1,0"/>
    <stop busStop="-924607337#1" duration="403" color="0,0,1"/>
    <walk from="-924607337#1" to="-303412427#1" speed="1.5" color="0,1,0"/>
  </person>
  <person id="person_19" depart="3" departLane="random" departSpeed="1.00">
    <walk from="119883577#7" busStop="119883577#7" speed="1.5" color="0,1,0"/>
    <stop busStop="119883577#7" duration="336" color="0,0,1"/>
    <walk from="119883577#7" to="-303412427#13" speed="1.5" color="0,1,0"/>
  </person>
  <person id="person_241" depart="6" departLane="random" departSpeed="1.00">
    <walk from="161754854#1" busStop="161754854#1" speed="1.5" color="0,1,0"/>
    <ride line="trad_line" busStop="161754854#1" to="-1176045778" color="0,0,1"/>
    <walk edges="-1176045778" speed="1.5" color="0,1,0"/>
  </person>
  <person id="person_278" depart="6" departLane="random" departSpeed="1.00">
    <walk from="54338767#1" busStop="54338767#1" speed="1.5" color="0,1,0"/>
    <stop busStop="54338767#1" duration="308" color="0,0,1"/>
  </person>
  <person id="person_236" depart="7" departLane="random" departSpeed="1.00">
    <walk from="-303412427#10" busStop="-303412427#10" speed="1.5" color="0,1,0"/>
    <stop busStop="-303412427#10" duration="482" color="0,0,1"/>
    <walk from="-303412427#10" to="-303412427#3" speed="1.5" color="0,1,0"/>
  </person>
  <person id="person_47" depart="8" departLane="random" departSpeed="1.00">
    <walk from="924607337#2" busStop="924607337#2" speed="1.5" color="0,1,0"/>
    <ride line="trad_line" busStop="924607337#2" to="1074607188" color="0,0,1"/>
    <walk edges="1074607188" speed="1.5" color="0,1,0"/>
  </person>
  <person id="person_206" depart="8" departLane="random" departSpeed="1.00">
    <walk from="107396681#6" busStop="107396681#6" speed="1.5" color="0,1,0"/>
    <stop busStop="107396681#6" duration="246" color="0,0,1"/>
  </person>
  <person id="person_21" depart="9" departLane="random" departSpeed="1.00">
    <walk from="176435844#7" busStop="176435844#7" speed="1.5" color="0,1,0"/>
    <stop busStop="176435844#7" duration="598" color="0,0,1"/>
  </person>
  <person id="person_52" depart="11" departLane="random" departSpeed="1.00">
    <walk from="820063587#1" busStop="820063587#1" speed="1.5" color="0,1,0"/>
    <ride line="trad_line" busStop="820063587#1" to="745183364#1" color="0,0,1"/>
    <walk edges="745183364#1" speed="1.5" color="0,1,0"/>
  </person>
  <person id="person_83" depart="12" departLane="random" departSpeed="1.00">
    <walk from="176435844#7" busStop="176435844#7" speed="1.5" color="0,1,0"/>
    <ride line="trad_line" busStop="176435844#7" to="4588647#0" color="0,0,1"/>
    <walk edges="4588647#0" speed="1.5" color="0,1,0"/>
  </person>
  <person id="person_266" depart="12" departLane="random" departSpeed="1.00">
    <walk from="1156612124" busStop="1156612124" speed="1.5" color="0,1,0"/>
    <stop busStop="1156612124" duration="172" color="0,0,1"/>
  </person>
  <person id="person_162" depart="13" departLane="random" departSpeed="1.00">
    <walk from="-303412427#1" busStop="-303412427#1" speed="1.5" color="0,1,0"/>
    <stop busStop="-303412427#1" duration="221" color="0,0,1"/>
  </person>
  <person id="person_130" depart="18" departLane="random" departSpeed="1.00">
    <walk from="694268909#1" busStop="694268909#1" speed="1.5" color="0,1,0"/>
    <ride line="trad_line" busStop="694268909#1" to="1072039865#1" color="0,0,1"/>
    <walk edges="1072039865#1" speed="1.5" color="0,1,0"/>
  </person>
  <person id="person_12" depart="21" departLane="random" departSpeed="1.00">
    <walk from="1148489399#1" busStop="1148489399#1" speed="1.5" color="0,1,0"/>
    <ride line="trad_line" busStop="1148489399#1" to="-303412427#7" color="0,0,1"/>
    <walk edges="-303412427#7" speed="1.5" color="0,1,0"/>
  </person>
  <person id="person_28" depart="21" departLane="random" departSpeed="1.00">
    <walk from="48630242#3" busStop="48630242#3" speed="1.5" color="0,1,0"/>
    <ride line="trad_line" busStop="48630242#3" to="575729108#1" color="0,0,1"/>
    <walk edges="575729108#1" speed="1.5" color="0,1,0"/>
  </person>
  <person id="person_232" depart="22" departLane="random" departSpeed="1.00">
    <walk from="575729552#1" busStop="575729552#1" speed="1.5" color="0,1,0"/>
    <ride line="trad_line" busStop="575729552#1" to="136822575" color="0,0,1"/>
    <walk edges="136822575" speed="1.5" color="0,1,0"/>
  </person>
  <person id="person_167" depart="23" departLane="random" departSpeed="1.00">
    <walk from="706706674#0" busStop="706706674#0" speed="1.5" color="0,1,0"/>
    <stop busStop="706706674#0" duration="264" color="0,0,1"/>
  </person>
  <person id="person_126" depart="24" departLane="random" departSpeed="1.00">
    <walk from="-4588647#3" busStop="-4588647#3" speed="1.5" color="0,1,0"/>
    <stop busStop="-4588647#3" duration="231" color="0,0,1"/>
  </person>
  <person id="person_165" depart="25" departLane="random" departSpeed="1.00">
    <walk from="-303412427#1" busStop="-303412427#1" speed="1.5" color="0,1,0"/>
    <ride line="trad_line" busStop="-303412427#1" to="-29377703#2" color="0,0,1"/>
    <walk edges="-29377703#2" speed="1.5" color="0,1,0"/>
  </person>
  <person id="person_233" depart="25" departLane="random" departSpeed="1.00">
    <walk from="-82694445#2" busStop="-82694445#2" speed="1.5" color="0,1,0"/>
    <stop busStop="-82694445#2" duration="250" color="0,0,1"/>
  </person>
  <person id="person_122" depart="29" departLane="random" departSpeed="1.00">
    <walk from="136822571#1" busStop="136822571#1" speed="1.5" color="0,1,0"/>
    <stop busStop="136822571#1" duration="202" color="0,0,1"/>
  </person>
  <person id="person_77" depart="30" departLane="random" departSpeed="1.00">
    <walk from="-368461882#0" busStop="-368461882#0" speed="1.5" color="0,1,0"/>
    <stop busStop="-368461882#0" duration="165" color="0,0,1"/>
    <walk from="-368461882#0" to="-303412427#16" speed="1.5" color="0,1,0"/>
  </person>
  <person id="person_213" depart="34" departLane="random" departSpeed="1.00">
    <walk from="924607337#0" busStop="924607337#0" speed="1.5" color="0,1,0"/>
    <ride line="trad_line" busStop="924607337#0" to="4588647#3" color="0,0,1"/>
    <walk edges="4588647#3" speed="1.5" color="0,1,0"/>
  </person>
  <person id="person_285" depart="34" departLane="random" departSpeed="1.00">
    <walk from="303412427#2" busStop="303412427#2" speed="1.5" color="0,1,0"/>
    <stop busStop="303412427#2" duration="118" color="0,0,1"/>
    <walk from="303412427#2" to="-615478344#0" speed="1.5" color="0,1,0"/>
  </person>
  <person id="person_194" depart="35" departLane="random" departSpeed="1.00">
    <walk from="1156612124" busStop="1156612124" speed="1.5" color="0,1,0"/>
    <stop busStop="1156612124" duration="107" color="0,0,1"/>
  </person>
  <person id="person_197" depart="39" departLane="random" departSpeed="1.00">
    <walk from="303412427#9" busStop="303412427#9" speed="1.5" color="0,1,0"/>
    <ride line="trad_line" busStop="303412427#9" to="5019952#4" color="0,0,1"/>
    <walk edges="5019952#4" speed="1.5" color="0,1,0"/>
  </person>
  <person id="person_291" depart="39" departLane="random" departSpeed="1.00">
    <walk from="-694268909#0" busStop="-694268909#0" speed="1.5" color="0,1,0"/>
    <ride line="trad_line" busStop="-694268909#0" to="-303412427#7" color="0,0,1"/>
    <walk edges="-303412427#7" speed="1.5" color="0,1,0"/>
  </person>
  <person id="person_64" depart="40" departLane="random" departSpeed="1.00">
    <walk from="805198994#1" busStop="805198994#1" speed="1.5" color="0,1,0"/>
    <ride line="trad_line" busStop="805198994#1" to="-924607337#1" color="0,0,1"/>
    <walk edges="-924607337#1" speed="1.5" color="0,1,0"/>
  </person>
  <person id="person_125" depart="45" departLane="random" departSpeed="1.00">
    <walk from="-615478344#0" busStop="-615478344#0" speed="1.5" color="0,1,0"/>
    <ride line="trad_line" busStop="-615478344#0" to="-303412427#10" color="0,0,1"/>
    <walk edges="-303412427#10" speed="1.5" color="0,1,0"/>
  </person>
  <person id="person_70" depart="46" departLane="random" departSpeed="1.00">
    <walk from="303412427#5" busStop="303412427#5" speed="1.5" color="0,1,0"/>
    <stop busStop="303412427#5" duration="371" color="0,0,1"/>
  </person>
  <person id="person_103" depart="48" departLane="random" departSpeed="1.00">
    <walk from="1018627463" busStop="1018627463" speed="1.5" color="0,1,0"/>
    <stop busStop="1018627463" duration="241" color="0,0,1"/>
    <walk from="1018627463" to="-4588647#4" speed="1.5" color="0,1,0"/>
  </person>
  <person id="person_237" depart="48" departLane="random" departSpeed="1.00">
    <walk from="303412427#17" busStop="303412427#17" speed="1.5" color="0,1,0"/>
    <stop busStop="303412427#17" duration="354" color="0,0,1"/>
  </person>
  <person id="person_38" depart="50" departLane="random" departSpeed="1.00">
    <walk from="329609972#0" busStop="329609972#0" speed="1.5" color="0,1,0"/>
    <stop busStop="329609972#0" duration="226" color="0,0,1"/>
  </person>
  <person id="person_204" depart="51" departLane="random" departSpeed="1.00">
    <walk from="4332734#1" busStop="4332734#1" speed="1.5" color="0,1,0"/>
    <stop busStop="4332734#1" duration="172" color="0,0,1"/>
  </person>
  <person id="person_9" depart="54" departLane="random" departSpeed="1.00">
    <walk from="-694268909#0" busStop="-694268909#0" speed="1.5" color="0,1,0"/>
    <stop busStop="-694268909#0" duration="111" color="0,0,1"/>
  </person>
  <person id="person_201" depart="54" departLane="random" departSpeed="1.00">
    <walk from="-4588647#0" busStop="-4588647#0" speed="1.5" color="0,1,0"/>
    <stop busStop="-4588647#0" duration="411" color="0,0,1"/>
  </person>
  <person id="person_269" depart="55" departLane="random" departSpeed="1.00">
    <walk from="-303412427#9" busStop="-303412427#9" speed="1.5" color="0,1,0"/>
    <stop busStop="-303412427#9" duration="397" color="0,0,1"/>
  </person>
  <person id="person_240" depart="56" departLane="random" departSpeed="1.00">
    <walk from="16174062#4" busStop="16174062#4" speed="1.5" color="0,1,0"/>
    <stop busStop="16174062#4" duration="107" color="0,0,1"/>
    <walk from="16174062#4" to="176435844#7" speed="1.5" color="0,1,0"/>
  </person>
  <person id="person_251" depart="61" departLane="random" departSpeed="1.00">
    <walk from="1018627464" busStop="1018627464" speed="1.5" color="0,1,0"/>
    <stop busStop="1018627464" duration="168" color="0,0,1"/>
    <walk from="1018627464" to="-303412427#10" speed="1.5" color="0,1,0"/>
  </person>
  <person id="person_219" depart="62" departLane="random" departSpeed="1.00">
    <walk from="310627474#2" busStop="310627474#2" speed="1.5" color="0,1,0"/>
    <ride line="trad_line" busStop="310627474#2" to="745183362" color="0,0,1"/>
    <walk edges="745183362" speed="1.5" color="0,1,0"/>
  </person>
  <person id="person_184" depart="63" departLane="random" departSpeed="1.00">
    <walk from="161754854#1" busStop="161754854#1" speed="1.5" color="0,1,0"/>
    <stop busStop="161754854#1" duration="506" color="0,0,1"/>
  </person>
  <person id="person_258" depart="66" departLane="random" departSpeed="1.00">
    <walk from="369686026" busStop="369686026" speed="1.5" color="0,1,0"/>
    <stop busStop="369686026" duration="256" color="0,0,1"/>
    <walk from="369686026" to="-303412427#12" speed="1.5" color="0,1,0"/>
  </person>
  <person id="person_108" depart="67" departLane="random" departSpeed="1.00">
    <walk from="-615478345" busStop="-615478345" speed="1.5" color="0,1,0"/>
    <ride line="trad_line" busStop="-615478345" to="-303412427#1" color="0,0,1"/>
    <walk edges="-303412427#1" speed="1.5" color="0,1,0"/>
  </person>
  <person id="person_100" depart="68" departLane="random" departSpeed="1.00">
    <walk from="694268909#0" busStop="694268909#0" speed="1.5" color="0,1,0"/>
    <ride line="trad_line" busStop="694268909#0" to="729164041#0" color="0,0,1"/>
    <walk edges="729164041#0" speed="1.5" color="0,1,0"/>
  </person>
  <person id="person_288" depart="74" departLane="random" departSpeed="1.00">
    <walk from="-694268909#0" busStop="-694268909#0" speed="1.5" color="0,1,0"/>
    <stop busStop="-694268909#0" duration="596" color="0,0,1"/>
  </person>
  <person id="person_221" depart="75" departLane="random" departSpeed="1.00">
    <walk from="176435844#4" busStop="176435844#4" speed="1.5" color="0,1,0"/>
    <stop busStop="176435844#4" duration="434" color="0,0,1"/>
    <walk from="176435844#4" to="-368461882#1" speed="1.5" color="0,1,0"/>
  </person>
  <person id="person_267" depart="76" departLane="random" departSpeed="1.00">
    <walk from="29377703#2" busStop="29377703#2" speed="1.5" color="0,1,0"/>
    <stop busStop="29377703#2" duration="165" color="0,0,1"/>
    <walk from="29377703#2" to="295073752#0" speed="1.5" color="0,1,0"/>
  </person>
  <person id="person_95" depart="77" departLane="random" departSpeed="1.00">
    <walk from="615478345" busStop="615478345" speed="1.5" color="0,1,0"/>
    <stop busStop="615478345" duration="477" color="0,0,1"/>
    <walk from="615478345" to="-4588647#0" speed="1.5" color="0,1,0"/>
  </person>
  <person id="person_53" depart="78" departLane="random" departSpeed="1.00">
    <walk from="615456193#0" busStop="615456193#0" speed="1.5" color="0,1,0"/>
    <ride line="trad_line" busStop="615456193#0" to="16174062#0" color="0,0,1"/>
    <walk edges="16174062#0" speed="1.5" color="0,1,0"/>
  </person>
  <person id="person_113" depart="80" departLane="random" departSpeed="1.00">
    <walk from="-615478345" busStop="-615478345" speed="1.5" color="0,1,0"/>
    <ride line="trad_line" busStop="-615478345" to="-303412427#10" color="0,0,1"/>
    <walk edges="-303412427#10" speed="1.5" color="0,1,0"/>
  </person>
  <person id="person_220" depart="80" departLane="random" departSpeed="1.00">
    <walk from="16174062#2" busStop="16174062#2" speed="1.5" color="0,1,0"/>
    <stop busStop="16174062#2" duration="387" color="0,0,1"/>
    <walk from="16174062#2" to="136822587#0" speed="1.5" color="0,1,0"/>
  </person>
  <person id="person_7" depart="82" departLane="random" departSpeed="1.00">
    <walk from="303412427#9" busStop="303412427#9" speed="1.5" color="0,1,0"/>
    <ride line="trad_line" busStop="303412427#9" to="757990562" color="0,0,1"/>
    <walk edges="757990562" speed="1.5" color="0,1,0"/>
  </person>
  <person id="person_116" depart="84" departLane="random" departSpeed="1.00">
    <walk from="575729555" busStop="575729555" speed="1.5" color="0,1,0"/>
    <stop busStop="575729555" duration="587" color="0,0,1"/>
  </person>
  <person id="person_198" depart="84" departLane="random" departSpeed="1.00">
    <walk from="4258656#2" busStop="4258656#2" speed="1.5" color="0,1,0"/>
    <stop busStop="4258656#2" duration="363" color="0,0,1"/>
    <walk from="4258656#2" to="745183364#0" speed="1.5" color="0,1,0"/>
  </person>
  <person id="person_78" depart="86" departLane="random" departSpeed="1.00">
    <walk from="119883577#1" busStop="119883577#1" speed="1.5" color="0,1,0"/>
    <stop busStop="119883577#1" duration="98" color="0,0,1"/>
    <walk from="119883577#1" to="1072039865#1" speed="1.5" color="0,1,0"/>
  </person>
  <person id="person_72" depart="89" departLane="random" departSpeed="1.00">
    <walk from="-1176045777" busStop="-1176045777" speed="1.5" color="0,1,0"/>
    <ride line="trad_line" busStop="-1176045777" to="-615456193#1" color="0,0,1"/>
    <walk edges="-615456193#1" speed="1.5" color="0,1,0"/>
  </person>
  <person id="person_128" depart="90" departLane="random" departSpeed="1.00">
    <walk from="-924607337#4" busStop="-924607337#4" speed="1.5" color="0,1,0"/>
    <ride line="trad_line" busStop="-924607337#4" to="-303412427#17" color="0,0,1"/>
    <walk edges="-303412427#17" speed="1.5" color="0,1,0"/>
  </person>
  <person id="person_187" depart="91" departLane="random" departSpeed="1.00">
    <walk from="-1076442002" busStop="-1076442002" speed="1.5" color="0,1,0"/>
    <stop busStop="-1076442002" duration="502" color="0,0,1"/>
  </person>
  <person id="person_229" depart="96" departLane="random" departSpeed="1.00">
    <walk from="-187486758#0" busStop="-187486758#0" speed="1.5" color="0,1,0"/>
    <stop busStop="-187486758#0" duration="440" color="0,0,1"/>
    <walk from="-187486758#0" to="16174062#5" speed="1.5" color="0,1,0"/>
  </person>
  <person id="person_106" depart="102" departLane="random" departSpeed="1.00">
    <walk from="-303412427#3" busStop="-303412427#3" speed="1.5" color="0,1,0"/>
    <stop busStop="-303412427#3" duration="158" color="0,0,1"/>
    <walk from="-303412427#3" to="-29377703#1" speed="1.5" color="0,1,0"/>
  </person>
  <person id="person_286" depart="102" departLane="random" departSpeed="1.00">
    <walk from="820063578#1" busStop="820063578#1" speed="1.5" color="0,1,0"/>
    <ride line="trad_line" busStop="820063578#1" to="-615478344#0" color="0,0,1"/>
    <walk edges="-615478344#0" speed="1.5" color="0,1,0"/>
  </person>
  <person id="person_25" depart="103" departLane="random" departSpeed="1.00">
    <walk from="1074607189#0" busStop="1074607189#0" speed="1.5" color="0,1,0"/>
    <ride line="trad_line" busStop="1074607189#0" to="704746731#2" color="0,0,1"/>
    <walk edges="704746731#2" speed="1.5" color="0,1,0"/>
  </person>
  <person id="person_281" depart="111" departLane="random" departSpeed="1.00">
    <walk from="-303412427#3" busStop="-303412427#3" speed="1.5" color="0,1,0"/>
    <stop busStop="-303412427#3" duration="179" color="0,0,1"/>
    <walk from="-303412427#3" to="-29377703#2" speed="1.5" color="0,1,0"/>
  </person>
  <person id="person_118" depart="115" departLane="random" departSpeed="1.00">
    <walk from="924607337#2" busStop="924607337#2" speed="1.5" color="0,1,0"/>
    <ride line="trad_line" busStop="924607337#2" to="729164041#1" color="0,0,1"/>
    <walk edges="729164041#1" speed="1.5" color="0,1,0"/>
  </person>
  <person id="person_148" depart="118" departLane="random" departSpeed="1.00">
    <walk from="-368461882#0" busStop="-368461882#0" speed="1.5" color="0,1,0"/>
    <stop busStop="-368461882#0" duration="409" color="0,0,1"/>
  </person>
  <person id="person_46" depart="121" departLane="random" departSpeed="1.00">
    <walk from="-4588647#3" busStop="-4588647#3" speed="1.5" color="0,1,0"/>
    <ride line="trad_line" busStop="-4588647#3" to="-303412427#10" color="0,0,1"/>
    <walk edges="-303412427#10" speed="1.5" color="0,1,0"/>
  </person>
  <person id="person_139" depart="122" departLane="random" departSpeed="1.00">
    <walk from="-29377703#4" busStop="-29377703#4" speed="1.5" color="0,1,0"/>
    <ride line="trad_line" busStop="-29377703#4" to="-29377703#1" color="0,0,1"/>
    <walk edges="-29377703#1" speed="1.5" color="0,1,0"/>
  </person>
  <person id="person_33" depart="125" departLane="random" departSpeed="1.00">
    <walk from="1148489399#1" busStop="1148489399#1" speed="1.5" color="0,1,0"/>
    <stop busStop="1148489399#1" duration="276" color="0,0,1"/>
    <walk from="1148489399#1" to="820063587#1" speed="1.5" color="0,1,0"/>
  </person>
  <person id="person_276" depart="125" departLane="random" departSpeed="1.00">
    <walk from="685156794#1" busStop="685156794#1" speed="1.5" color="0,1,0"/>
    <stop busStop="685156794#1" duration="493" color="0,0,1"/>
  </person>
  <person id="person_217" depart="129" departLane="random" departSpeed="1.00">
    <walk from="303412427#16" busStop="303412427#16" speed="1.5" color="0,1,0"/>
    <stop busStop="303412427#16" duration="124" color="0,0,1"/>
  </person>
  <person id="person_225" depart="131" departLane="random" departSpeed="1.00">
    <walk from="-4588647#0" busStop="-4588647#0" speed="1.5" color="0,1,0"/>
    <ride line="trad_line" busStop="-4588647#0" to="5019952#4" color="0,0,1"/>
    <walk edges="5019952#4" speed="1.5" color="0,1,0"/>
  </person>
  <person id="person_238" depart="133" departLane="random" departSpeed="1.00">
    <walk from="-82694458#0" busStop="-82694458#0" speed="1.5" color="0,1,0"/>
    <stop busStop="-82694458#0" duration="80" color="0,0,1"/>
  </person>
  <person id="person_182" depart="134" departLane="random" departSpeed="1.00">
    <walk from="-368461882#1" busStop="-368461882#1" speed="1.5" color="0,1,0"/>
    <stop busStop="-368461882#1" duration="185" color="0,0,1"/>
  </person>
  <person id="person_211" depart="134" departLane="random" departSpeed="1.00">
    <walk from="706706674#0" busStop="706706674#0" speed="1.5" color="0,1,0"/>
    <stop busStop="706706674#0" duration="243" color="0,0,1"/>
    <walk from="706706674#0" to="154644778#0" speed="1.5" color="0,1,0"/>
  </person>
  <person id="person_226" depart="134" departLane="random" departSpeed="1.00">
    <walk from="729164041#1" busStop="729164041#1" speed="1.5" color="0,1,0"/>
    <stop busStop="729164041#1" duration="139" color="0,0,1"/>
    <walk from="729164041#1" to="4332734#2" speed="1.5" color="0,1,0"/>
  </person>
  <person id="person_209" depart="137" departLane="random" departSpeed="1.00">
    <walk from="303412427#13" busStop="303412427#13" speed="1.5" color="0,1,0"/>
    <stop busStop="303412427#13" duration="505" color="0,0,1"/>
    <walk from="303412427#13" to="924607337#2" speed="1.5" color="0,1,0"/>
  </person>
  <person id="person_298" depart="138" departLane="random" departSpeed="1.00">
    <walk from="368461882#0" busStop="368461882#0" speed="1.5" color="0,1,0"/>
    <stop busStop="368461882#0" duration="223" color="0,0,1"/>
  </person>
  <person id="person_23" depart="143" departLane="random" departSpeed="1.00">
    <walk from="29377703#2" busStop="29377703#2" speed="1.5" color="0,1,0"/>
    <ride line="trad_line" busStop="29377703#2" to="-368461882#1" color="0,0,1"/>
    <walk edges="-368461882#1" speed="1.5" color="0,1,0"/>
  </person>
  <person id="person_253" depart="145" departLane="random" departSpeed="1.00">
    <walk from="1074607188" busStop="1074607188" speed="1.5" color="0,1,0"/>
    <stop busStop="1074607188" duration="138" color="0,0,1"/>
  </person>
  <person id="person_169" depart="146" departLane="random" departSpeed="1.00">
    <walk from="-615478344#0" busStop="-615478344#0" speed="1.5" color="0,1,0"/>
    <ride line="trad_line" busStop="-615478344#0" to="-924607337#2" color="0,0,1"/>
    <walk edges="-924607337#2" speed="1.5" color="0,1,0"/>
  </person>
  <person id="person_263" depart="147" departLane="random" departSpeed="1.00">
    <walk from="1148489399#1" busStop="1148489399#1" speed="1.5" color="0,1,0"/>
    <stop busStop="1148489399#1" duration="341" color="0,0,1"/>
  </person>
  <person id="person_290" depart="147" departLane="random" departSpeed="1.00">
    <walk from="16174062#4" busStop="16174062#4" speed="1.5" color="0,1,0"/>
    <stop busStop="16174062#4" duration="464" color="0,0,1"/>
  </person>
  <person id="person_129" depart="148" departLane="random" departSpeed="1.00">
    <walk from="176435850" busStop="176435850" speed="1.5" color="0,1,0"/>
    <ride line="trad_line" busStop="176435850" to="-29377703#4" color="0,0,1"/>
    <walk edges="-29377703#4" speed="1.5" color="0,1,0"/>
  </person>
  <person id="person_246" depart="148" departLane="random" departSpeed="1.00">
    <walk from="825090426" busStop="825090426" speed="1.5" color="0,1,0"/>
    <ride line="trad_line" busStop="825090426" to="154644778#0" color="0,0,1"/>
    <walk edges="154644778#0" speed="1.5" color="0,1,0"/>
  </person>
  <person id="person_159" depart="150" departLane="random" departSpeed="1.00">
    <walk from="-187486758#1" busStop="-187486758#1" speed="1.5" color="0,1,0"/>
    <ride line="trad_line" busStop="-187486758#1" to="4332734#3" color="0,0,1"/>
    <walk edges="4332734#3" speed="1.5" color="0,1,0"/>
  </person>
  <person id="person_271" depart="151" departLane="random" departSpeed="1.00">
    <walk from="940627086" busStop="940627086" speed="1.5" color="0,1,0"/>
    <ride line="trad_line" busStop="940627086" to="-29377703#2" color="0,0,1"/>
    <walk edges="-29377703#2" speed="1.5" color="0,1,0"/>
  </person>
  <person id="person_101" depart="154" departLane="random" departSpeed="1.00">
    <walk from="615456193#1" busStop="615456193#1" speed="1.5" color="0,1,0"/>
    <stop busStop="615456193#1" duration="257" color="0,0,1"/>
  </person>
  <person id="person_247" depart="154" departLane="random" departSpeed="1.00">
    <walk from="119883577#1" busStop="119883577#1" speed="1.5" color="0,1,0"/>
    <stop busStop="119883577#1" duration="594" color="0,0,1"/>
  </person>
  <person id="person_282" depart="156" departLane="random" departSpeed="1.00">
    <walk from="-303412427#14" busStop="-303412427#14" speed="1.5" color="0,1,0"/>
    <ride line="trad_line" busStop="-303412427#14" to="-303412427#12" color="0,0,1"/>
    <walk edges="-303412427#12" speed="1.5" color="0,1,0"/>
  </person>
  <person id="person_73" depart="157" departLane="random" departSpeed="1.00">
    <walk from="745183364#0" busStop="745183364#0" speed="1.5" color="0,1,0"/>
    <stop busStop="745183364#0" duration="119" color="0,0,1"/>
    <walk from="745183364#0" to="-29377703#4" speed="1.5" color="0,1,0"/>
  </person>
  <person id="person_138" depart="157" departLane="random" departSpeed="1.00">
    <walk from="615456195" busStop="615456195" speed="1.5" color="0,1,0"/>
    <stop busStop="615456195" duration="300" color="0,0,1"/>
    <walk from="615456195" to="-303412427#9" speed="1.5" color="0,1,0"/>
  </person>
  <person id="person_164" depart="157" departLane="random" departSpeed="1.00">
    <walk from="-187486758#1" busStop="-187486758#1" speed="1.5" color="0,1,0"/>
    <ride line="trad_line" busStop="-187486758#1" to="136822587#1" color="0,0,1"/>
    <walk edges="136822587#1" speed="1.5" color="0,1,0"/>
  </person>
  <person id="person_41" depart="159" departLane="random" departSpeed="1.00">
    <walk from="575729108#1" busStop="575729108#1" speed="1.5" color="0,1,0"/>
    <stop busStop="575729108#1" duration="136" color="0,0,1"/>
  </person>
  <person id="person_143" depart="160" departLane="random" departSpeed="1.00">
    <walk from="-4588647#5" busStop="-4588647#5" speed="1.5" color="0,1,0"/>
    <stop busStop="-4588647#5" duration="384" color="0,0,1"/>
  </person>
  <person id="person_166" depart="161" departLane="random" departSpeed="1.00">
    <walk from="161754854#0" busStop="161754854#0" speed="1.5" color="0,1,0"/>
    <ride line="trad_line" busStop="161754854#0" to="121188638" color="0,0,1"/>
    <walk edges="121188638" speed="1.5" color="0,1,0"/>
  </person>
  <person id="person_259" depart="163" departLane="random" departSpeed="1.00">
    <walk from="107396681#6" busStop="107396681#6" speed="1.5" color="0,1,0"/>
    <stop busStop="107396681#6" duration="80" color="0,0,1"/>
    <walk from="107396681#6" to="136822587#1" speed="1.5" color="0,1,0"/>
  </person>
  <person id="person_255" depart="169" departLane="random" departSpeed="1.00">
    <walk from="-615456193#1" busStop="-615456193#1" speed="1.5" color="0,1,0"/>
    <stop busStop="-615456193#1" duration="409" color="0,0,1"/>
  </person>
  <person id="person_230" depart="170" departLane="random" departSpeed="1.00">
    <walk from="575729108#2" busStop="575729108#2" speed="1.5" color="0,1,0"/>
    <stop busStop="575729108#2" duration="238" color="0,0,1"/>
  </person>
  <person id="person_111" depart="171" departLane="random" departSpeed="1.00">
    <walk from="107396681#5" busStop="107396681#5" speed="1.5" color="0,1,0"/>
    <stop busStop="107396681#5" duration="337" color="0,0,1"/>
    <walk from="107396681#5" to="332624272" speed="1.5" color="0,1,0"/>
  </person>
  <person id="person_174" depart="171" departLane="random" departSpeed="1.00">
    <walk from="303412427#13" busStop="303412427#13" speed="1.5" color="0,1,0"/>
    <stop busStop="303412427#13" duration="579" color="0,0,1"/>
  </person>
  <person id="person_299" depart="171" departLane="random" departSpeed="1.00">
    <walk from="704746731#3" busStop="704746731#3" speed="1.5" color="0,1,0"/>
    <stop busStop="704746731#3" duration="53" color="0,0,1"/>
  </person>
  <person id="person_245" depart="172" departLane="random" departSpeed="1.00">
    <walk from="729164042#1" busStop="729164042#1" speed="1.5" color="0,1,0"/>
    <stop busStop="729164042#1" duration="431" color="0,0,1"/>
  </person>
  <person id="person_56" depart="173" departLane="random" departSpeed="1.00">
    <walk from="402897988#1" busStop="402897988#1" speed="1.5" color="0,1,0"/>
    <ride line="trad_line" busStop="402897988#1" to="745183362" color="0,0,1"/>
    <walk edges="745183362" speed="1.5" color="0,1,0"/>
  </person>
  <person id="person_289" depart="183" departLane="random" departSpeed="1.00">
    <walk from="29377703#2" busStop="29377703#2" speed="1.5" color="0,1,0"/>
    <stop busStop="29377703#2" duration="98" color="0,0,1"/>
    <walk from="29377703#2" to="-187486758#0" speed="1.5" color="0,1,0"/>
  </person>
  <person id="person_145" depart="186" departLane="random" departSpeed="1.00">
    <walk from="1018627464" busStop="1018627464" speed="1.5" color="0,1,0"/>
    <stop busStop="1018627464" duration="69" color="0,0,1"/>
  </person>
  <person id="person_17" depart="188" departLane="random" departSpeed="1.00">
    <walk from="5019952#4" busStop="5019952#4" speed="1.5" color="0,1,0"/>
    <ride line="trad_line" busStop="5019952#4" to="136822587#1" color="0,0,1"/>
    <walk edges="136822587#1" speed="1.5" color="0,1,0"/>
  </person>
  <person id="person_265" depart="188" departLane="random" departSpeed="1.00">