<?xml version="1.0" ?>
<routes>
  <person id="person_42" depart="0" departLane="random" departSpeed="1.00" color="1,0,1">
    <walk from="-29377703#2" busStop="-29377703#2" speed="1.5"/>
    <stop busStop="-29377703#2" duration="139"/>
  </person>
  <person id="person_77" depart="1" departLane="random" departSpeed="1.00" color="0,1,0">
    <walk from="-694268909#0" busStop="-694268909#0" speed="1.5"/>
    <ride line="trad_line" busStop="-694268909#0" to="-303412427#6"/>
    <walk edges="-303412427#6" speed="1.5"/>
  </person>
  <person id="person_298" depart="1" departLane="random" departSpeed="1.00" color="1,0,1">
    <walk from="1018627463" busStop="1018627463" speed="1.5"/>
    <stop busStop="1018627463" duration="102"/>
  </person>
  <person id="person_122" depart="2" departLane="random" departSpeed="1.00" color="1,0,1">
    <walk from="-615478344#0" busStop="-615478344#0" speed="1.5"/>
    <stop busStop="-615478344#0" duration="288"/>
  </person>
  <person id="person_226" depart="5" departLane="random" departSpeed="1.00" color="0,1,0">
    <walk from="-924607337#2" busStop="-924607337#2" speed="1.5"/>
    <ride line="trad_line" busStop="-924607337#2" to="-303412427#1"/>
    <walk edges="-303412427#1" speed="1.5"/>
  </person>
  <person id="person_297" depart="5" departLane="random" departSpeed="1.00" color="1,0,0">
    <walk from="29377703#2" busStop="29377703#2" speed="1.5"/>
    <stop busStop="29377703#2" duration="572"/>
    <walk from="29377703#2" to="615456193#1" speed="1.5"/>
  </person>
  <person id="person_59" depart="6" departLane="random" departSpeed="1.00" color="0,1,0">
    <walk from="-1176045778" busStop="-1176045778" speed="1.5"/>
    <ride line="trad_line" busStop="-1176045778" to="-615456193#2"/>
    <walk edges="-615456193#2" speed="1.5"/>
  </person>
  <person id="person_252" depart="10" departLane="random" departSpeed="1.00" color="1,0,1">
    <walk from="-615478345" busStop="-615478345" speed="1.5"/>
    <stop busStop="-615478345" duration="567"/>
  </person>
  <person id="person_48" depart="12" departLane="random" departSpeed="1.00" color="0,1,0">
    <walk from="107396681#5" busStop="107396681#5" speed="1.5"/>
    <ride line="trad_line" busStop="107396681#5" to="820063582#1"/>
    <walk edges="820063582#1" speed="1.5"/>
  </person>
  <person id="person_193" depart="12" departLane="random" departSpeed="1.00" color="1,0,1">
    <walk from="615456195" busStop="615456195" speed="1.5"/>
    <stop busStop="615456195" duration="100"/>
  </person>
  <person id="person_260" depart="12" departLane="random" departSpeed="1.00" color="1,0,0">
    <walk from="119883577#7" busStop="119883577#7" speed="1.5"/>
    <stop busStop="119883577#7" duration="238"/>
    <walk from="119883577#7" to="-694268909#0" speed="1.5"/>
  </person>
  <person id="person_172" depart="14" departLane="random" departSpeed="1.00" color="1,0,0">
    <walk from="119883577#6" busStop="119883577#6" speed="1.5"/>
    <stop busStop="119883577#6" duration="45"/>
    <walk from="119883577#6" to="4258656#1" speed="1.5"/>
  </person>
  <person id="person_273" depart="16" departLane="random" departSpeed="1.00" color="0,1,0">
    <walk from="369686026" busStop="369686026" speed="1.5"/>
    <ride line="trad_line" busStop="369686026" to="-82694445#2"/>
    <walk edges="-82694445#2" speed="1.5"/>
  </person>
  <person id="person_18" depart="20" departLane="random" departSpeed="1.00" color="1,0,0">
    <walk from="-303412427#18" busStop="-303412427#18" speed="1.5"/>
    <stop busStop="-303412427#18" duration="488"/>
    <walk from="-303412427#18" to="-303412427#7" speed="1.5"/>
  </person>
  <person id="person_204" depart="22" departLane="random" departSpeed="1.00" color="1,0,0">
    <walk from="4588647#4" busStop="4588647#4" speed="1.5"/>
    <stop busStop="4588647#4" duration="220"/>
    <walk from="4588647#4" to="-303412427#16" speed="1.5"/>
  </person>
  <person id="person_75" depart="23" departLane="random" departSpeed="1.00" color="1,0,0">
    <walk from="4258656#0" busStop="4258656#0" speed="1.5"/>
    <stop busStop="4258656#0" duration="427"/>
    <walk from="4258656#0" to="-303412427#1" speed="1.5"/>
  </person>
  <person id="person_257" depart="26" departLane="random" departSpeed="1.00" color="0,1,0">
    <walk from="820063579#1" busStop="820063579#1" speed="1.5"/>
    <ride line="trad_line" busStop="820063579#1" to="757990561"/>
    <walk edges="757990561" speed="1.5"/>
  </person>
  <person id="person_19" depart="27" departLane="random" departSpeed="1.00" color="1,0,1">
    <walk from="4243614#1" busStop="4243614#1" speed="1.5"/>
    <stop busStop="4243614#1" duration="433"/>
  </person>
  <person id="person_182" depart="27" departLane="random" departSpeed="1.00" color="0,1,0">
    <walk from="694268909#1" busStop="694268909#1" speed="1.5"/>
    <ride line="trad_line" busStop="694268909#1" to="54338767#0"/>
    <walk edges="54338767#0" speed="1.5"/>
  </person>
  <person id="person_248" depart="29" departLane="random" departSpeed="1.00" color="1,0,0">
    <walk from="4332734#4" busStop="4332734#4" speed="1.5"/>
    <stop busStop="4332734#4" duration="594"/>
    <walk from="4332734#4" to="-924607338" speed="1.5"/>
  </person>
  <person id="person_10" depart="34" departLane="random" departSpeed="1.00" color="1,0,1">
    <walk from="1018627463" busStop="1018627463" speed="1.5"/>
    <stop busStop="1018627463" duration="371"/>
  </person>
  <person id="person_139" depart="34" departLane="random" departSpeed="1.00" color="1,0,0">
    <walk from="4086429" busStop="4086429" speed="1.5"/>
    <stop busStop="4086429" duration="242"/>
    <walk from="4086429" to="704746731#0" speed="1.5"/>
  </person>
  <person id="person_79" depart="35" departLane="random" departSpeed="1.00" color="1,0,0">
    <walk from="685156794#1" busStop="685156794#1" speed="1.5"/>
    <stop busStop="685156794#1" duration="401"/>
    <walk from="685156794#1" to="48630242#2" speed="1.5"/>
  </person>
  <person id="person_150" depart="38" departLane="random" departSpeed="1.00" color="1,0,1">
    <walk from="-4332734#0" busStop="-4332734#0" speed="1.5"/>
    <stop busStop="-4332734#0" duration="467"/>
  </person>
  <person id="person_221" depart="38" departLane="random" departSpeed="1.00" color="0,1,0">
    <walk from="-4332734#0" busStop="-4332734#0" speed="1.5"/>
    <ride line="trad_line" busStop="-4332734#0" to="54338767#1"/>
    <walk edges="54338767#1" speed="1.5"/>
  </person>
  <person id="person_217" depart="39" departLane="random" departSpeed="1.00" color="1,0,1">
    <walk from="-303412427#18" busStop="-303412427#18" speed="1.5"/>
    <stop busStop="-303412427#18" duration="537"/>
  </person>
  <person id="person_287" depart="43" departLane="random" departSpeed="1.00" color="0,1,0">
    <walk from="161754854#0" busStop="161754854#0" speed="1.5"/>
    <ride line="trad_line" busStop="161754854#0" to="-924607337#3"/>
    <walk edges="-924607337#3" speed="1.5"/>
  </person>
  <person id="person_133" depart="46" departLane="random" departSpeed="1.00" color="1,0,0">
    <walk from="-1076442002" busStop="-1076442002" speed="1.5"/>
    <stop busStop="-1076442002" duration="53"/>
    <walk from="-1076442002" to="-303412427#6" speed="1.5"/>
  </person>
  <person id="person_208" depart="46" departLane="random" departSpeed="1.00" color="0,1,0">
    <walk from="-924607337#2" busStop="-924607337#2" speed="1.5"/>
    <ride line="trad_line" busStop="-924607337#2" to="-29377703#2"/>
    <walk edges="-29377703#2" speed="1.5"/>
  </person>
  <person id="person_73" depart="55" departLane="random" departSpeed="1.00" color="1,0,1">
    <walk from="119883577#1" busStop="119883577#1" speed="1.5"/>
    <stop busStop="119883577#1" duration="242"/>
  </person>
  <person id="person_280" depart="56" departLane="random" departSpeed="1.00" color="0,1,0">
    <walk from="-1176045778" busStop="-1176045778" speed="1.5"/>
    <ride line="trad_line" busStop="-1176045778" to="-924607337#3"/>
    <walk edges="-924607337#3" speed="1.5"/>
  </person>
  <person id="person_104" depart="57" departLane="random" departSpeed="1.00" color="0,1,0">
    <walk from="-303412427#7" busStop="-303412427#7" speed="1.5"/>
    <ride line="trad_line" busStop="-303412427#7" to="-303412427#2"/>
    <walk edges="-303412427#2" speed="1.5"/>
  </person>
  <person id="person_66" depart="58" departLane="random" departSpeed="1.00" color="1,0,0">
    <walk from="332624272" busStop="332624272" speed="1.5"/>
    <stop busStop="332624272" duration="56"/>
    <walk from="332624272" to="-303412427#12" speed="1.5"/>
  </person>
  <person id="person_96" depart="59" departLane="random" departSpeed="1.00" color="0,1,0">
    <walk from="303412427#16" busStop="303412427#16" speed="1.5"/>
    <ride line="trad_line" busStop="303412427#16" to="820063582#1"/>
    <walk edges="820063582#1" speed="1.5"/>
  </person>
  <person id="person_245" depart="59" departLane="random" departSpeed="1.00" color="1,0,1">
    <walk from="1018627463" busStop="1018627463" speed="1.5"/>
    <stop busStop="1018627463" duration="38"/>
  </person>
  <person id="person_21" depart="62" departLane="random" departSpeed="1.00" color="1,0,1">
    <walk from="-303412427#18" busStop="-303412427#18" speed="1.5"/>
    <stop busStop="-303412427#18" duration="391"/>
  </person>
  <person id="person_127" depart="62" departLane="random" departSpeed="1.00" color="1,0,1">
    <walk from="368461882#0" busStop="368461882#0" speed="1.5"/>
    <stop busStop="368461882#0" duration="377"/>
  </person>
  <person id="person_109" depart="63" departLane="random" departSpeed="1.00" color="0,1,0">
    <walk from="-575729555" busStop="-575729555" speed="1.5"/>
    <ride line="trad_line" busStop="-575729555" to="4332734#7"/>
    <walk edges="4332734#7" speed="1.5"/>
  </person>
  <person id="person_31" depart="64" departLane="random" departSpeed="1.00" color="1,0,0">
    <walk from="303412427#9" busStop="303412427#9" speed="1.5"/>
    <stop busStop="303412427#9" duration="577"/>
    <walk from="303412427#9" to="119883577#10" speed="1.5"/>
  </person>
  <person id="person_186" depart="64" departLane="random" departSpeed="1.00" color="1,0,1">
    <walk from="-303412427#10" busStop="-303412427#10" speed="1.5"/>
    <stop busStop="-303412427#10" duration="130"/>
  </person>
  <person id="person_213" depart="65" departLane="random" departSpeed="1.00" color="1,0,1">
    <walk from="1148489399#1" busStop="1148489399#1" speed="1.5"/>
    <stop busStop="1148489399#1" duration="564"/>
  </person>
  <person id="person_180" depart="67" departLane="random" departSpeed="1.00" color="1,0,0">
    <walk from="1074607189#0" busStop="1074607189#0" speed="1.5"/>
    <stop busStop="1074607189#0" duration="232"/>
    <walk from="1074607189#0" to="4258656#1" speed="1.5"/>
  </person>
  <person id="person_276" depart="67" departLane="random" departSpeed="1.00" color="1,0,0">
    <walk from="310627474#0" busStop="310627474#0" speed="1.5"/>
    <stop busStop="310627474#0" duration="471"/>
    <walk from="310627474#0" to="729164041#1" speed="1.5"/>
  </person>
  <person id="person_300" depart="67" departLane="random" departSpeed="1.00" color="1,0,1">
    <walk from="-4332734#7" busStop="-4332734#7" speed="1.5"/>
    <stop busStop="-4332734#7" duration="245"/>
  </person>
  <person id="person_176" depart="68" departLane="random" departSpeed="1.00" color="1,0,1">
    <walk from="369686026" busStop="369686026" speed="1.5"/>
    <stop busStop="369686026" duration="322"/>
  </person>
  <person id="person_85" depart="72" departLane="random" departSpeed="1.00" color="0,1,0">
    <walk from="-178615165" busStop="-178615165" speed="1.5"/>
    <ride line="trad_line" busStop="-178615165" to="-303412427#7"/>
    <walk edges="-303412427#7" speed="1.5"/>
  </person>
  <person id="person_135" depart="73" departLane="random" departSpeed="1.00" color="1,0,1">
    <walk from="-924607337#4" busStop="-924607337#4" speed="1.5"/>
    <stop busStop="-924607337#4" duration="111"/>
  </person>
  <person id="person_203" depart="73" departLane="random" departSpeed="1.00" color="1,0,0">
    <walk from="-1076442002" busStop="-1076442002" speed="1.5"/>
    <stop busStop="-1076442002" duration="228"/>
    <walk from="-1076442002" to="310627474#1" speed="1.5"/>
  </person>
  <person id="person_105" depart="74" departLane="random" departSpeed="1.00" color="0,1,0">
    <walk from="107396681#4" busStop="107396681#4" speed="1.5"/>
    <ride line="trad_line" busStop="107396681#4" to="1018627463"/>
    <walk edges="1018627463" speed="1.5"/>
  </person>
  <person id="person_200" depart="75" departLane="random" departSpeed="1.00" color="1,0,0">
    <walk from="176435844#7" busStop="176435844#7" speed="1.5"/>
    <stop busStop="176435844#7" duration="175"/>
    <walk from="176435844#7" to="-29377703#1" speed="1.5"/>
  </person>
  <person id="person_29" depart="77" departLane="random" departSpeed="1.00" color="1,0,0">
    <walk from="685156794#0" busStop="685156794#0" speed="1.5"/>
    <stop busStop="685156794#0" duration="476"/>
    <walk from="685156794#0" to="-924607337#3" speed="1.5"/>
  </person>
  <person id="person_38" depart="77" departLane="random" departSpeed="1.00" color="1,0,1">
    <walk from="-4332734#0" busStop="-4332734#0" speed="1.5"/>
    <stop busStop="-4332734#0" duration="364"/>
  </person>
  <person id="person_159" depart="79" departLane="random" departSpeed="1.00" color="0,1,0">
    <walk from="295073752#0" busStop="295073752#0" speed="1.5"/>
    <ride line="trad_line" busStop="295073752#0" to="729164041#1"/>
    <walk edges="729164041#1" speed="1.5"/>
  </person>
  <person id="person_211" depart="81" departLane="random" departSpeed="1.00" color="1,0,0">
    <walk from="4332734#3" busStop="4332734#3" speed="1.5"/>
    <stop busStop="4332734#3" duration="428"/>
    <walk from="4332734#3" to="-924607337#4" speed="1.5"/>
  </person>
  <person id="person_116" depart="82" departLane="random" departSpeed="1.00" color="1,0,1">
    <walk from="923261416" busStop="923261416" speed="1.5"/>
    <stop busStop="923261416" duration="121"/>
  </person>
  <person id="person_32" depart="87" departLane="random" departSpeed="1.00" color="0,1,0">
    <walk from="615478344#1" busStop="615478344#1" speed="1.5"/>
    <ride line="trad_line" busStop="615478344#1" to="1156612124"/>
    <walk edges="1156612124" speed="1.5"/>
  </person>
  <person id="person_1" depart="88" departLane="random" departSpeed="1.00" color="1,0,1">
    <walk from="-303412427#3" busStop="-303412427#3" speed="1.5"/>
    <stop busStop="-303412427#3" duration="292"/>
  </person>
  <person id="person_22" depart="88" departLane="random" departSpeed="1.00" color="0,1,0">
    <walk from="121188638" busStop="121188638" speed="1.5"/>
    <ride line="trad_line" busStop="121188638" to="-303412427#2"/>
    <walk edges="-303412427#2" speed="1.5"/>
  </person>
  <person id="person_249" depart="88" departLane="random" departSpeed="1.00" color="0,1,0">
    <walk from="-924607337#2" busStop="-924607337#2" speed="1.5"/>
    <ride line="trad_line" busStop="-924607337#2" to="-924607338"/>
    <walk edges="-924607338" speed="1.5"/>
  </person>
  <person id="person_286" depart="91" departLane="random" departSpeed="1.00" color="1,0,1">
    <walk from="615456193#1" busStop="615456193#1" speed="1.5"/>
    <stop busStop="615456193#1" duration="102"/>
  </person>
  <person id="person_171" depart="98" departLane="random" departSpeed="1.00" color="1,0,0">
    <walk from="332624272" busStop="332624272" speed="1.5"/>
    <stop busStop="332624272" duration="494"/>
    <walk from="332624272" to="-303412427#8" speed="1.5"/>
  </person>
  <person id="person_236" depart="99" departLane="random" departSpeed="1.00" color="1,0,0">
    <walk from="303412427#18" busStop="303412427#18" speed="1.5"/>
    <stop busStop="303412427#18" duration="544"/>
    <walk from="303412427#18" to="161754854#1" speed="1.5"/>
  </person>
  <person id="person_258" depart="99" departLane="random" departSpeed="1.00" color="1,0,1">
    <walk from="-4332734#6" busStop="-4332734#6" speed="1.5"/>
    <stop busStop="-4332734#6" duration="340"/>
  </person>
  <person id="person_99" depart="102" departLane="random" departSpeed="1.00" color="0,1,0">
    <walk from="1176045777" busStop="1176045777" speed="1.5"/>
    <ride line="trad_line" busStop="1176045777" to="369686026"/>
    <walk edges="369686026" speed="1.5"/>
  </person>
  <person id="person_156" depart="105" departLane="random" departSpeed="1.00" color="1,0,1">
    <walk from="820063578#0" busStop="820063578#0" speed="1.5"/>
    <stop busStop="820063578#0" duration="507"/>
  </person>
  <person id="person_239" depart="107" departLane="random" departSpeed="1.00" color="1,0,0">
    <walk from="729164042#1" busStop="729164042#1" speed="1.5"/>
    <stop busStop="729164042#1" duration="41"/>
    <walk from="729164042#1" to="-615478345" speed="1.5"/>
  </person>
  <person id="person_12" depart="110" departLane="random" departSpeed="1.00" color="1,0,0">
    <walk from="154644778#1" busStop="154644778#1" speed="1.5"/>
    <stop busStop="154644778#1" duration="518"/>
    <walk from="154644778#1" to="-29377703#1" speed="1.5"/>
  </person>
  <person id="person_78" depart="115" departLane="random" departSpeed="1.00" color="1,0,1">
    <walk from="820063582#1" busStop="820063582#1" speed="1.5"/>
    <stop busStop="820063582#1" duration="249"/>
  </person>
  <person id="person_132" depart="115" departLane="random" departSpeed="1.00" color="0,1,0">
    <walk from="820063582#0" busStop="820063582#0" speed="1.5"/>
    <ride line="trad_line" busStop="820063582#0" to="4258656#0"/>
    <walk edges="4258656#0" speed="1.5"/>
  </person>
  <person id="person_46" depart="117" departLane="random" departSpeed="1.00" color="1,0,0">
    <walk from="1018627463" busStop="1018627463" speed="1.5"/>
    <stop busStop="1018627463" duration="433"/>
    <walk from="1018627463" to="176435849" speed="1.5"/>
  </person>
  <person id="person_16" depart="119" departLane="random" departSpeed="1.00" color="1,0,0">
    <walk from="-48630242#1" busStop="-48630242#1" speed="1.5"/>
    <stop busStop="-48630242#1" duration="194"/>
    <walk from="-48630242#1" to="329609972#0" speed="1.5"/>
  </person>
  <person id="person_129" depart="120" departLane="random" departSpeed="1.00" color="1,0,1">
    <walk from="176435844#7" busStop="176435844#7" speed="1.5"/>
    <stop busStop="176435844#7" duration="200"/>
  </person>
  <person id="person_142" depart="123" departLane="random" departSpeed="1.00" color="1,0,1">
    <walk from="-924607337#3" busStop="-924607337#3" speed="1.5"/>
    <stop busStop="-924607337#3" duration="73"/>
  </person>
  <person id="person_166" depart="125" departLane="random" departSpeed="1.00" color="1,0,0">
    <walk from="-694268909#0" busStop="-694268909#0" speed="1.5"/>
    <stop busStop="-694268909#0" duration="535"/>
    <walk from="-694268909#0" to="-303412427#2" speed="1.5"/>
  </person>
  <person id="person_8" depart="126" departLane="random" departSpeed="1.00" color="1,0,0">
    <walk from="161754854#1" busStop="161754854#1" speed="1.5"/>
    <stop busStop="161754854#1" duration="96"/>
    <walk from="161754854#1" to="5019952#5" speed="1.5"/>
  </person>
  <person id="person_81" depart="127" departLane="random" departSpeed="1.00" color="0,1,0">
    <walk from="-575729108#3" busStop="-575729108#3" speed="1.5"/>
    <ride line="trad_line" busStop="-575729108#3" to="16174062#2"/>
    <walk edges="16174062#2" speed="1.5"/>
  </person>
  <person id="person_126" depart="127" departLane="random" departSpeed="1.00" color="1,0,1">
    <walk from="136822571#3" busStop="136822571#3" speed="1.5"/>
    <stop busStop="136822571#3" duration="174"/>
  </person>
  <person id="person_265" depart="127" departLane="random" departSpeed="1.00" color="0,1,0">
    <walk from="-303412427#17" busStop="-303412427#17" speed="1.5"/>
    <ride line="trad_line" busStop="-303412427#17" to="-303412427#5"/>
    <walk edges="-303412427#5" speed="1.5"/>
  </person>
  <person id="person_152" depart="128" departLane="random" departSpeed="1.00" color="1,0,1">
    <walk from="1074607188" busStop="1074607188" speed="1.5"/>
    <stop busStop="1074607188" duration="34"/>
  </person>
  <person id="person_292" depart="130" departLane="random" departSpeed="1.00" color="0,1,0">
    <walk from="820063587#1" busStop="820063587#1" speed="1.5"/>
    <ride line="trad_line" busStop="820063587#1" to="940627086"/>
    <walk edges="940627086" speed="1.5"/>
  </person>
  <person id="person_215" depart="132" departLane="random" departSpeed="1.00" color="1,0,0">
    <walk from="-48630242#3" busStop="-48630242#3" speed="1.5"/>
    <stop busStop="-48630242#3" duration="213"/>
    <walk from="-48630242#3" to="-187486758#5" speed="1.5"/>
  </person>
  <person id="person_121" depart="134" departLane="random" departSpeed="1.00" color="1,0,1">
    <walk from="16174062#5" busStop="16174062#5" speed="1.5"/>
    <stop busStop="16174062#5" duration="203"/>
  </person>
  <person id="person_69" depart="138" departLane="random" departSpeed="1.00" color="1,0,1">
    <walk from="1176045778" busStop="1176045778" speed="1.5"/>
    <stop busStop="1176045778" duration="47"/>
  </person>
  <person id="person_67" depart="139" departLane="random" departSpeed="1.00" color="0,1,0">
    <walk from="119883577#9" busStop="119883577#9" speed="1.5"/>
    <ride line="trad_line" busStop="119883577#9" to="-924607337#1"/>
    <walk edges="-924607337#1" speed="1.5"/>
  </person>
  <person id="person_17" depart="140" departLane="random" departSpeed="1.00" color="0,1,0">
    <walk from="757990562" busStop="757990562" speed="1.5"/>
    <ride line="trad_line" busStop="757990562" to="-303412427#17"/>
    <walk edges="-303412427#17" speed="1.5"/>
  </person>
  <person id="person_291" depart="149" departLane="random" departSpeed="1.00" color="1,0,1">
    <walk from="757990562" busStop="757990562" speed="1.5"/>
    <stop busStop="757990562" duration="246"/>
  </person>
  <person id="person_283" depart="150" departLane="random" departSpeed="1.00" color="1,0,1">
    <walk from="-4332734#1" busStop="-4332734#1" speed="1.5"/>
    <stop busStop="-4332734#1" duration="539"/>
  </person>
  <person id="person_34" depart="154" departLane="random" departSpeed="1.00" color="1,0,0">
    <walk from="-615478344#1" busStop="-615478344#1" speed="1.5"/>
    <stop busStop="-615478344#1" duration="477"/>
    <walk from="-615478344#1" to="-303412427#10" speed="1.5"/>
  </person>
  <person id="person_124" depart="155" departLane="random" departSpeed="1.00" color="0,1,0">
    <walk from="303412427#1" busStop="303412427#1" speed="1.5"/>
    <ride line="trad_line" busStop="303412427#1" to="107396681#6"/>
    <walk edges="107396681#6" speed="1.5"/>
  </person>
  <person id="person_223" depart="155" departLane="random" departSpeed="1.00" color="1,0,0">
    <walk from="136822580#1" busStop="136822580#1" speed="1.5"/>
    <stop busStop="136822580#1" duration="521"/>
    <walk from="136822580#1" to="805198994#0" speed="1.5"/>
  </person>
  <person id="person_30" depart="156" departLane="random" departSpeed="1.00" color="1,0,0">
    <walk from="4332734#1" busStop="4332734#1" speed="1.5"/>
    <stop busStop="4332734#1" duration="36"/>
    <walk from="4332734#1" to="-924607337#2" speed="1.5"/>
  </person>
  <person id="person_288" depart="156" departLane="random" departSpeed="1.00" color="1,0,0">
    <walk from="1112806233-AddedOnRampEdge" busStop="1112806233-AddedOnRampEdge" speed="1.5"/>
    <stop busStop="1112806233-AddedOnRampEdge" duration="254"/>
    <walk from="1112806233-AddedOnRampEdge" to="745183364#1" speed="1.5"/>
  </person>
  <person id="person_241" depart="157" departLane="random" departSpeed="1.00" color="1,0,1">
    <walk from="119883577#4" busStop="119883577#4" speed="1.5"/>
    <stop busStop="119883577#4" duration="573"/>
  </person>
  <person id="person_174" depart="160" departLane="random" departSpeed="1.00" color="1,0,1">
    <walk from="16174062#0" busStop="16174062#0" speed="1.5"/>
    <stop busStop="16174062#0" duration="224"/>
  </person>
  <person id="person_179" depart="160" departLane="random" departSpeed="1.00" color="1,0,1">
    <walk from="-940627086" busStop="-940627086" speed="1.5"/>
    <stop busStop="-940627086" duration="131"/>
  </person>
  <person id="person_246" depart="165" departLane="random" departSpeed="1.00" color="0,1,0">
    <walk from="729164041#1" busStop="729164041#1" speed="1.5"/>
    <ride line="trad_line" busStop="729164041#1" to="575729108#2"/>
    <walk edges="575729108#2" speed="1.5"/>
  </person>
  <person id="person_55" depart="166" departLane="random" departSpeed="1.00" color="0,1,0">
    <walk from="757990561" busStop="757990561" speed="1.5"/>
    <ride line="trad_line" busStop="757990561" to="136822575"/>
    <walk edges="136822575" speed="1.5"/>
  </person>
  <person id="person_170" depart="169" departLane="random" departSpeed="1.00" color="1,0,1">
    <walk from="-82694445#2" busStop="-82694445#2" speed="1.5"/>
    <stop busStop="-82694445#2" duration="465"/>
  </person>
  <person id="person_11" depart="171" departLane="random" departSpeed="1.00" color="1,0,0">
    <walk from="704746733#0" busStop="704746733#0" speed="1.5"/>
    <stop busStop="704746733#0" duration="332"/>
    <walk from="704746733#0" to="-303412427#16" speed="1.5"/>
  </person>
  <person id="person_218" depart="172" departLane="random" departSpeed="1.00" color="1,0,0">
    <walk from="161754855#0" busStop="161754855#0" speed="1.5"/>
    <stop busStop="161754855#0" duration="245"/>
    <walk from="161754855#0" to="917450545" speed="1.5"/>
  </person>
  <person id="person_227" depart="172" departLane="random" departSpeed="1.00" color="1,0,1">
    <walk from="368461882#0" busStop="368461882#0" speed="1.5"/>
    <stop busStop="368461882#0" duration="124"/>
  </person>
  <person id="person_56" depart="173" departLane="random" departSpeed="1.00" color="1,0,0">
    <walk from="615456193#2" busStop="615456193#2" speed="1.5"/>
    <stop busStop="615456193#2" duration="272"/>
    <walk from="615456193#2" to="615478345" speed="1.5"/>
  </person>
  <person id="person_164" depart="174" departLane="random" departSpeed="1.00" color="0,1,0">
    <walk from="368461882#0" busStop="368461882#0" speed="1.5"/>
    <ride line="trad_line" busStop="368461882#0" to="4332734#1"/>
    <walk edges="4332734#1" speed="1.5"/>
  </person>
  <person id="person_83" depart="177" departLane="random" departSpeed="1.00" color="0,1,0">
    <walk from="-303412427#1" busStop="-303412427#1" speed="1.5"/>
    <ride line="trad_line" busStop="-303412427#1" to="-29377703#1"/>
    <walk edges="-29377703#1" speed="1.5"/>
  </person>
  <person id="person_267" depart="177" departLane="random" departSpeed="1.00" color="0,1,0">
    <walk from="136822582" busStop="136822582" speed="1.5"/>
    <ride line="trad_line" busStop="136822582" to="1112806233-AddedOnRampEdge"/>
    <walk edges="1112806233-AddedOnRampEdge" speed="1.5"/>
  </person>
  <person id="person_52" depart="180" departLane="random" departSpeed="1.00" color="0,1,0">
    <walk from="-368461882#1" busStop="-368461882#1" speed="1.5"/>
    <ride line="trad_line" busStop="-368461882#1" to="-303412427#18"/>
    <walk edges="-303412427#18" speed="1.5"/>
  </person>
  <person id="person_51" depart="182" departLane="random" departSpeed="1.00" color="1,0,1">
    <walk from="332624272" busStop="332624272" speed="1.5"/>
    <stop busStop="332624272" duration="194"/>
  </person>
  <person id="person_98" depart="182" departLane="random" departSpeed="1.00" color="1,0,0">
    <walk from="917450545" busStop="917450545" speed="1.5"/>
    <stop busStop="917450545" duration="145"/>
    <walk from="917450545" to="4258656#0" speed="1.5"/>
  </person>
  <person id="person_65" depart="183" departLane="random" departSpeed="1.00" color="1,0,0">
    <walk from="-82694458#0" busStop="-82694458#0" speed="1.5"/>
    <stop busStop="-82694458#0" duration="42"/>
    <walk from="-82694458#0" to="-924607337#2" speed="1.5"/>
  </person>
  <person id="person_205" depart="183" departLane="random" departSpeed="1.00" color="1,0,1">
    <walk from="-615456193#1" busStop="-615456193#1" speed="1.5"/>
    <stop busStop="-615456193#1" duration="200"/>
  </person>
  <person id="person_161" depart="188" departLane="random" departSpeed="1.00" color="0,1,0">
    <walk from="48630242#2" busStop="48630242#2" speed="1.5"/>
    <ride line="trad_line" busStop="48630242#2" to="4332734#4"/>
    <walk edges="4332734#4" speed="1.5"/>
  </person>
  <person id="person_50" depart="189" departLane="random" departSpeed="1.00" color="0,1,0">
    <walk from="16174062#0" busStop="16174062#0" speed="1.5"/>
    <ride line="trad_line" busStop="16174062#0" to="310627474#7"/>
    <walk edges="310627474#7" speed="1.5"/>
  </person>
  <person id="person_92" depart="197" departLane="random" departSpeed="1.00" color="0,1,0">
    <walk from="154644778#0" busStop="154644778#0" speed="1.5"/>
    <ride line="trad_line" busStop="154644778#0" to="154644778#1"/>
    <walk edges="154644778#1" speed="1.5"/>
  </person>
  <person id="person_149" depart="197" departLane="random" departSpeed="1.00" color="1,0,0">
    <walk from="4588647#3" busStop="4588647#3" speed="1.5"/>
    <stop busStop="4588647#3" duration="227"/>
    <walk from="4588647#3" to="-924607337#0" speed="1.5"/>
  </person>
  <person id="person_57" depart="199" departLane="random" departSpeed="1.00" color="0,1,0">
    <walk from="368461882#0" busStop="368461882#0" speed="1.5"/>
    <ride line="trad_line" busStop="368461882#0" to="5019952#2"/>
    <walk edges="5019952#2" speed="1.5"/>
  </person>
  <person id="person_259" depart="199" departLane="random" departSpeed="1.00" color="1,0,1">
    <walk from="29377703#4" busStop="29377703#4" speed="1.5"/>
    <stop busStop="29377703#4" duration="504"/>
  </person>
  <person id="person_277" depart="200" departLane="random" departSpeed="1.00" color="1,0,1">