<?xml version="1.0" ?>
<routes>
  <person id="person_52" depart="46" departLane="random" departSpeed="1.00" color="1,0,1">
    <walk from="1112806233" busStop="1112806233" speed="1.5"/>
    <stop busStop="1112806233" duration="555"/>
  </person>
  <person id="person_6" depart="98" departLane="random" departSpeed="1.00" color="1,0,0">
    <walk from="1112806233" busStop="1112806233" speed="1.5"/>
    <stop busStop="1112806233" duration="496"/>
    <walk from="1112806233" to="4588647" speed="1.5"/>
  </person>
  <person id="person_64" depart="113" departLane="random" departSpeed="1.00" color="0,1,0">
    <walk from="-4588647" busStop="-4588647" speed="1.5"/>
    <ride line="trad_line" busStop="-4588647" to="1112806233"/>
    <walk edges="1112806233" speed="1.5"/>
  </person>
  <person id="person_174" depart="178" departLane="random" departSpeed="1.00" color="0,1,0">
    <walk from="1112806233" busStop="1112806233" speed="1.5"/>
    <ride line="trad_line" busStop="1112806233" to="4588647"/>
    <walk edges="4588647" speed="1.5"/>
  </person>
  <person id="person_250" depart="239" departLane="random" departSpeed="1.00" color="1,0,0">
    <walk from="1112806233" busStop="1112806233" speed="1.5"/>
    <stop busStop="1112806233" duration="570"/>
    <walk from="1112806233" to="4588647" speed="1.5"/>
  </person>
  <person id="person_58" depart="250" departLane="random" departSpeed="1.00" color="1,0,0">
    <walk from="-4588647" busStop="-4588647" speed="1.5"/>
    <stop busStop="-4588647" duration="117"/>
    <walk from="-4588647" to="1112806233" speed="1.5"/>
  </person>
  <person id="person_16" depart="256" departLane="random" departSpeed="1.00" color="1,0,1">
    <walk from="-4588647" busStop="-4588647" speed="1.5"/>
    <stop busStop="-4588647" duration="404"/>
  </person>
  <person id="person_41" depart="262" departLane="random" departSpeed="1.00" color="1,0,0">
    <walk from="1112806233" busStop="1112806233" speed="1.5"/>
    <stop busStop="1112806233" duration="436"/>
    <walk from="1112806233" to="4588647" speed="1.5"/>
  </person>
  <person id="person_114" depart="276" departLane="random" departSpeed="1.00" color="0,1,0">
    <walk from="-4588647" busStop="-4588647" speed="1.5"/>
    <ride line="trad_line" busStop="-4588647" to="4588647"/>
    <walk edges="4588647" speed="1.5"/>
  </person>
  <person id="person_199" depart="281" departLane="random" departSpeed="1.00" color="1,0,1">
    <walk from="1112806233" busStop="1112806233" speed="1.5"/>
    <stop busStop="1112806233" duration="314"/>
  </person>
  <person id="person_177" depart="289" departLane="random" departSpeed="1.00" color="1,0,0">
    <walk from="1174874706" busStop="1174874706" speed="1.5"/>
    <stop busStop="1174874706" duration="207"/>
    <walk from="1174874706" to="4588647" speed="1.5"/>
  </person>
  <person id="person_44" depart="323" departLane="random" departSpeed="1.00" color="1,0,1">
    <walk from="-917450542" busStop="-917450542" speed="1.5"/>
    <stop busStop="-917450542" duration="147"/>
  </person>
  <person id="person_226" depart="342" departLane="random" departSpeed="1.00" color="1,0,0">
    <walk from="-4588647" busStop="-4588647" speed="1.5"/>
    <stop busStop="-4588647" duration="398"/>
    <walk from="-4588647" to="1112806233" speed="1.5"/>
  </person>
  <person id="person_284" depart="368" departLane="random" departSpeed="1.00" color="0,1,0">
    <walk from="1112806233" busStop="1112806233" speed="1.5"/>
    <ride line="trad_line" busStop="1112806233" to="4588647"/>
    <walk edges="4588647" speed="1.5"/>
  </person>
  <person id="person_206" depart="396" departLane="random" departSpeed="1.00" color="0,1,0">
    <walk from="1112806233" busStop="1112806233" speed="1.5"/>
    <ride line="trad_line" busStop="1112806233" to="4588647"/>
    <walk edges="4588647" speed="1.5"/>
  </person>
  <person id="person_288" depart="401" departLane="random" departSpeed="1.00" color="1,0,0">
    <walk from="1174874706" busStop="1174874706" speed="1.5"/>
    <stop busStop="1174874706" duration="552"/>
    <walk from="1174874706" to="-917450542" speed="1.5"/>
  </person>
  <person id="person_243" depart="408" departLane="random" departSpeed="1.00" color="0,1,0">
    <walk from="-4588647" busStop="-4588647" speed="1.5"/>
    <ride line="trad_line" busStop="-4588647" to="4588647"/>
    <walk edges="4588647" speed="1.5"/>
  </person>
  <person id="person_236" depart="411" departLane="random" departSpeed="1.00" color="1,0,0">
    <walk from="-917450542" busStop="-917450542" speed="1.5"/>
    <stop busStop="-917450542" duration="449"/>
    <walk from="-917450542" to="1112806233" speed="1.5"/>
  </person>
  <person id="person_88" depart="429" departLane="random" departSpeed="1.00" color="1,0,0">
    <walk from="-917450542" busStop="-917450542" speed="1.5"/>
    <stop busStop="-917450542" duration="364"/>
    <walk from="-917450542" to="1112806233" speed="1.5"/>
  </person>
  <person id="person_242" depart="431" departLane="random" departSpeed="1.00" color="0,1,0">
    <walk from="1112806233" busStop="1112806233" speed="1.5"/>
    <ride line="trad_line" busStop="1112806233" to="4588647"/>
    <walk edges="4588647" speed="1.5"/>
  </person>
  <person id="person_76" depart="444" departLane="random" departSpeed="1.00" color="1,0,1">
    <walk from="1174874706" busStop="1174874706" speed="1.5"/>
    <stop busStop="1174874706" duration="186"/>
  </person>
  <person id="person_28" depart="451" departLane="random" departSpeed="1.00" color="1,0,1">
    <walk from="-4588647" busStop="-4588647" speed="1.5"/>
    <stop busStop="-4588647" duration="540"/>
  </person>
  <person id="person_15" depart="470" departLane="random" departSpeed="1.00" color="1,0,1">
    <walk from="1174874706" busStop="1174874706" speed="1.5"/>
    <stop busStop="1174874706" duration="486"/>
  </person>
  <person id="person_130" depart="471" departLane="random" departSpeed="1.00" color="1,0,0">
    <walk from="1112806233" busStop="1112806233" speed="1.5"/>
    <stop busStop="1112806233" duration="481"/>
    <walk from="1112806233" to="4588647" speed="1.5"/>
  </person>
  <person id="person_172" depart="480" departLane="random" departSpeed="1.00" color="1,0,1">
    <walk from="-4588647" busStop="-4588647" speed="1.5"/>
    <stop busStop="-4588647" duration="197"/>
  </person>
  <person id="person_139" depart="587" departLane="random" departSpeed="1.00" color="1,0,0">
    <walk from="1174874706" busStop="1174874706" speed="1.5"/>
    <stop busStop="1174874706" duration="137"/>
    <walk from="1174874706" to="-4588647" speed="1.5"/>
  </person>
  <person id="person_156" depart="604" departLane="random" departSpeed="1.00" color="1,0,1">
    <walk from="-917450542" busStop="-917450542" speed="1.5"/>
    <stop busStop="-917450542" duration="497"/>
  </person>
  <person id="person_203" depart="613" departLane="random" departSpeed="1.00" color="1,0,1">
    <walk from="-917450542" busStop="-917450542" speed="1.5"/>
    <stop busStop="-917450542" duration="289"/>
  </person>
  <person id="person_220" depart="616" departLane="random" departSpeed="1.00" color="0,1,0">
    <walk from="-4588647" busStop="-4588647" speed="1.5"/>
    <ride line="trad_line" busStop="-4588647" to="1112806233"/>
    <walk edges="1112806233" speed="1.5"/>
  </person>
  <person id="person_241" depart="635" departLane="random" departSpeed="1.00" color="1,0,0">
    <walk from="1112806233" busStop="1112806233" speed="1.5"/>
    <stop busStop="1112806233" duration="182"/>
    <walk from="1112806233" to="4588647" speed="1.5"/>
  </person>
  <person id="person_54" depart="645" departLane="random" departSpeed="1.00" color="1,0,0">
    <walk from="1174874706" busStop="1174874706" speed="1.5"/>
    <stop busStop="1174874706" duration="321"/>
    <walk from="1174874706" to="4588647" speed="1.5"/>
  </person>
  <person id="person_104" depart="667" departLane="random" departSpeed="1.00" color="0,1,0">
    <walk from="-4588647" busStop="-4588647" speed="1.5"/>
    <ride line="trad_line" busStop="-4588647" to="1112806233"/>
    <walk edges="1112806233" speed="1.5"/>
  </person>
  <person id="person_205" depart="685" departLane="random" departSpeed="1.00" color="1,0,0">
    <walk from="1174874706" busStop="1174874706" speed="1.5"/>
    <stop busStop="1174874706" duration="319"/>
    <walk from="1174874706" to="-917450542" speed="1.5"/>
  </person>
  <person id="person_4" depart="692" departLane="random" departSpeed="1.00" color="0,1,0">
    <walk from="-4588647" busStop="-4588647" speed="1.5"/>
    <ride line="trad_line" busStop="-4588647" to="1112806233"/>
    <walk edges="1112806233" speed="1.5"/>
  </person>
  <person id="person_31" depart="693" departLane="random" departSpeed="1.00" color="0,1,0">
    <walk from="-917450542" busStop="-917450542" speed="1.5"/>
    <ride line="trad_line" busStop="-917450542" to="4588647"/>
    <walk edges="4588647" speed="1.5"/>
  </person>
  <person id="person_298" depart="724" departLane="random" departSpeed="1.00" color="1,0,1">
    <walk from="1112806233" busStop="1112806233" speed="1.5"/>
    <stop busStop="1112806233" duration="257"/>
  </person>
  <person id="person_275" depart="729" departLane="random" departSpeed="1.00" color="1,0,1">
    <walk from="-917450542" busStop="-917450542" speed="1.5"/>
    <stop busStop="-917450542" duration="102"/>
  </person>
  <person id="person_296" depart="771" departLane="random" departSpeed="1.00" color="1,0,1">
    <walk from="-4588647" busStop="-4588647" speed="1.5"/>
    <stop busStop="-4588647" duration="133"/>
  </person>
  <person id="person_98" depart="777" departLane="random" departSpeed="1.00" color="0,1,0">
    <walk from="1174874706" busStop="1174874706" speed="1.5"/>
    <ride line="trad_line" busStop="1174874706" to="4588647"/>
    <walk edges="4588647" speed="1.5"/>
  </person>
  <person id="person_267" depart="804" departLane="random" departSpeed="1.00" color="1,0,1">
    <walk from="-917450542" busStop="-917450542" speed="1.5"/>
    <stop busStop="-917450542" duration="541"/>
  </person>
  <person id="person_280" depart="823" departLane="random" departSpeed="1.00" color="1,0,0">
    <walk from="1174874706" busStop="1174874706" speed="1.5"/>
    <stop busStop="1174874706" duration="41"/>
    <walk from="1174874706" to="4588647" speed="1.5"/>
  </person>
  <person id="person_120" depart="879" departLane="random" departSpeed="1.00" color="1,0,1">
    <walk from="1112806233" busStop="1112806233" speed="1.5"/>
    <stop busStop="1112806233" duration="39"/>
  </person>
  <person id="person_42" depart="990" departLane="random" departSpeed="1.00" color="1,0,0">
    <walk from="1174874706" busStop="1174874706" speed="1.5"/>
    <stop busStop="1174874706" duration="140"/>
    <walk from="1174874706" to="-917450542" speed="1.5"/>
  </person>
  <person id="person_193" depart="1010" departLane="random" departSpeed="1.00" color="1,0,1">
    <walk from="1174874706" busStop="1174874706" speed="1.5"/>
    <stop busStop="1174874706" duration="381"/>
  </person>
  <person id="person_176" depart="1087" departLane="random" departSpeed="1.00" color="1,0,0">
    <walk from="-917450542" busStop="-917450542" speed="1.5"/>
    <stop busStop="-917450542" duration="333"/>
    <walk from="-917450542" to="4588647" speed="1.5"/>
  </person>
  <person id="person_169" depart="1105" departLane="random" departSpeed="1.00" color="0,1,0">
    <walk from="1112806233" busStop="1112806233" speed="1.5"/>
    <ride line="trad_line" busStop="1112806233" to="4588647"/>
    <walk edges="4588647" speed="1.5"/>
  </person>
  <person id="person_90" depart="1110" departLane="random" departSpeed="1.00" color="1,0,0">
    <walk from="-917450542" busStop="-917450542" speed="1.5"/>
    <stop busStop="-917450542" duration="422"/>
    <walk from="-917450542" to="-4588647" speed="1.5"/>
  </person>
  <person id="person_260" depart="1159" departLane="random" departSpeed="1.00" color="1,0,1">
    <walk from="1112806233" busStop="1112806233" speed="1.5"/>
    <stop busStop="1112806233" duration="366"/>
  </person>
  <person id="person_24" depart="1162" departLane="random" departSpeed="1.00" color="1,0,0">
    <walk from="1174874706" busStop="1174874706" speed="1.5"/>
    <stop busStop="1174874706" duration="194"/>
    <walk from="1174874706" to="1112806233" speed="1.5"/>
  </person>
  <person id="person_166" depart="1166" departLane="random" departSpeed="1.00" color="0,1,0">
    <walk from="1112806233" busStop="1112806233" speed="1.5"/>
    <ride line="trad_line" busStop="1112806233" to="4588647"/>
    <walk edges="4588647" speed="1.5"/>
  </person>
  <person id="person_185" depart="1177" departLane="random" departSpeed="1.00" color="1,0,1">
    <walk from="-4588647" busStop="-4588647" speed="1.5"/>
    <stop busStop="-4588647" duration="544"/>
  </person>
  <person id="person_33" depart="1178" departLane="random" departSpeed="1.00" color="1,0,1">
    <walk from="-4588647" busStop="-4588647" speed="1.5"/>
    <stop busStop="-4588647" duration="353"/>
  </person>
  <person id="person_70" depart="1180" departLane="random" departSpeed="1.00" color="1,0,1">
    <walk from="1112806233" busStop="1112806233" speed="1.5"/>
    <stop busStop="1112806233" duration="530"/>
  </person>
  <person id="person_218" depart="1195" departLane="random" departSpeed="1.00" color="0,1,0">
    <walk from="-4588647" busStop="-4588647" speed="1.5"/>
    <ride line="trad_line" busStop="-4588647" to="4588647"/>
    <walk edges="4588647" speed="1.5"/>
  </person>
  <person id="person_190" depart="1216" departLane="random" departSpeed="1.00" color="1,0,0">
    <walk from="-4588647" busStop="-4588647" speed="1.5"/>
    <stop busStop="-4588647" duration="385"/>
    <walk from="-4588647" to="4588647" speed="1.5"/>
  </person>
  <person id="person_106" depart="1229" departLane="random" departSpeed="1.00" color="1,0,0">
    <walk from="1112806233" busStop="1112806233" speed="1.5"/>
    <stop busStop="1112806233" duration="59"/>
    <walk from="1112806233" to="4588647" speed="1.5"/>
  </person>
  <person id="person_248" depart="1238" departLane="random" departSpeed="1.00" color="0,1,0">
    <walk from="1112806233" busStop="1112806233" speed="1.5"/>
    <ride line="trad_line" busStop="1112806233" to="4588647"/>
    <walk edges="4588647" speed="1.5"/>
  </person>
  <person id="person_8" depart="1254" departLane="random" departSpeed="1.00" color="1,0,0">
    <walk from="-917450542" busStop="-917450542" speed="1.5"/>
    <stop busStop="-917450542" duration="41"/>
    <walk from="-917450542" to="-4588647" speed="1.5"/>
  </person>
  <person id="person_152" depart="1272" departLane="random" departSpeed="1.00" color="0,1,0">
    <walk from="1174874706" busStop="1174874706" speed="1.5"/>
    <ride line="trad_line" busStop="1174874706" to="-917450542"/>
    <walk edges="-917450542" speed="1.5"/>
  </person>
  <person id="person_45" depart="1292" departLane="random" departSpeed="1.00" color="1,0,0">
    <walk from="-4588647" busStop="-4588647" speed="1.5"/>
    <stop busStop="-4588647" duration="484"/>
    <walk from="-4588647" to="4588647" speed="1.5"/>
  </person>
  <person id="person_37" depart="1335" departLane="random" departSpeed="1.00" color="0,1,0">
    <walk from="-4588647" busStop="-4588647" speed="1.5"/>
    <ride line="trad_line" busStop="-4588647" to="1112806233"/>
    <walk edges="1112806233" speed="1.5"/>
  </person>
  <person id="person_53" depart="1336" departLane="random" departSpeed="1.00" color="0,1,0">
    <walk from="-4588647" busStop="-4588647" speed="1.5"/>
    <ride line="trad_line" busStop="-4588647" to="1112806233"/>
    <walk edges="1112806233" speed="1.5"/>
  </person>
  <person id="person_129" depart="1386" departLane="random" departSpeed="1.00" color="1,0,0">
    <walk from="1174874706" busStop="1174874706" speed="1.5"/>
    <stop busStop="1174874706" duration="390"/>
    <walk from="1174874706" to="-4588647" speed="1.5"/>
  </person>
  <person id="person_126" depart="1389" departLane="random" departSpeed="1.00" color="1,0,0">
    <walk from="1112806233" busStop="1112806233" speed="1.5"/>
    <stop busStop="1112806233" duration="355"/>
    <walk from="1112806233" to="4588647" speed="1.5"/>
  </person>
  <person id="person_46" depart="1440" departLane="random" departSpeed="1.00" color="1,0,0">
    <walk from="-4588647" busStop="-4588647" speed="1.5"/>
    <stop busStop="-4588647" duration="293"/>
    <walk from="-4588647" to="1112806233" speed="1.5"/>
  </person>
  <person id="person_17" depart="1446" departLane="random" departSpeed="1.00" color="1,0,0">
    <walk from="-917450542" busStop="-917450542" speed="1.5"/>
    <stop busStop="-917450542" duration="411"/>
    <walk from="-917450542" to="-4588647" speed="1.5"/>
  </person>
  <person id="person_84" depart="1447" departLane="random" departSpeed="1.00" color="0,1,0">
    <walk from="-4588647" busStop="-4588647" speed="1.5"/>
    <ride line="trad_line" busStop="-4588647" to="1112806233"/>
    <walk edges="1112806233" speed="1.5"/>
  </person>
  <person id="person_71" depart="1506" departLane="random" departSpeed="1.00" color="0,1,0">
    <walk from="1112806233" busStop="1112806233" speed="1.5"/>
    <ride line="trad_line" busStop="1112806233" to="4588647"/>
    <walk edges="4588647" speed="1.5"/>
  </person>
  <person id="person_29" depart="1525" departLane="random" departSpeed="1.00" color="1,0,1">
    <walk from="-917450542" busStop="-917450542" speed="1.5"/>
    <stop busStop="-917450542" duration="153"/>
  </person>
  <person id="person_94" depart="1563" departLane="random" departSpeed="1.00" color="1,0,0">
    <walk from="1174874706" busStop="1174874706" speed="1.5"/>
    <stop busStop="1174874706" duration="444"/>
    <walk from="1174874706" to="4588647" speed="1.5"/>
  </person>
  <person id="person_230" depart="1622" departLane="random" departSpeed="1.00" color="1,0,0">
    <walk from="1174874706" busStop="1174874706" speed="1.5"/>
    <stop busStop="1174874706" duration="165"/>
    <walk from="1174874706" to="4588647" speed="1.5"/>
  </person>
  <person id="person_244" depart="1628" departLane="random" departSpeed="1.00" color="0,1,0">
    <walk from="-917450542" busStop="-917450542" speed="1.5"/>
    <ride line="trad_line" busStop="-917450542" to="-4588647"/>
    <walk edges="-4588647" speed="1.5"/>
  </person>
  <person id="person_96" depart="1644" departLane="random" departSpeed="1.00" color="1,0,0">
    <walk from="-917450542" busStop="-917450542" speed="1.5"/>
    <stop busStop="-917450542" duration="412"/>
    <walk from="-917450542" to="4588647" speed="1.5"/>
  </person>
  <person id="person_235" depart="1649" departLane="random" departSpeed="1.00" color="1,0,1">
    <walk from="-4588647" busStop="-4588647" speed="1.5"/>
    <stop busStop="-4588647" duration="444"/>
  </person>
  <person id="person_289" depart="1689" departLane="random" departSpeed="1.00" color="1,0,0">
    <walk from="-4588647" busStop="-4588647" speed="1.5"/>
    <stop busStop="-4588647" duration="162"/>
    <walk from="-4588647" to="1112806233" speed="1.5"/>
  </person>
  <person id="person_297" depart="1703" departLane="random" departSpeed="1.00" color="1,0,1">
    <walk from="-917450542" busStop="-917450542" speed="1.5"/>
    <stop busStop="-917450542" duration="241"/>
  </person>
  <person id="person_240" depart="1714" departLane="random" departSpeed="1.00" color="1,0,0">
    <walk from="1174874706" busStop="1174874706" speed="1.5"/>
    <stop busStop="1174874706" duration="424"/>
    <walk from="1174874706" to="-917450542" speed="1.5"/>
  </person>
  <person id="person_233" depart="1718" departLane="random" departSpeed="1.00" color="0,1,0">
    <walk from="1174874706" busStop="1174874706" speed="1.5"/>
    <ride line="trad_line" busStop="1174874706" to="-4588647"/>
    <walk edges="-4588647" speed="1.5"/>
  </person>
  <person id="person_80" depart="1721" departLane="random" departSpeed="1.00" color="1,0,1">
    <walk from="1112806233" busStop="1112806233" speed="1.5"/>
    <stop busStop="1112806233" duration="145"/>
  </person>
  <person id="person_125" depart="1758" departLane="random" departSpeed="1.00" color="1,0,1">
    <walk from="-4588647" busStop="-4588647" speed="1.5"/>
    <stop busStop="-4588647" duration="362"/>
  </person>
  <person id="person_108" depart="1770" departLane="random" departSpeed="1.00" color="1,0,0">
    <walk from="1112806233" busStop="1112806233" speed="1.5"/>
    <stop busStop="1112806233" duration="409"/>
    <walk from="1112806233" to="4588647" speed="1.5"/>
  </person>
  <person id="person_49" depart="1780" departLane="random" departSpeed="1.00" color="0,1,0">
    <walk from="1174874706" busStop="1174874706" speed="1.5"/>
    <ride line="trad_line" busStop="1174874706" to="4588647"/>
    <walk edges="4588647" speed="1.5"/>
  </person>
  <person id="person_109" depart="1781" departLane="random" departSpeed="1.00" color="1,0,0">
    <walk from="1174874706" busStop="1174874706" speed="1.5"/>
    <stop busStop="1174874706" duration="65"/>
    <walk from="1174874706" to="-4588647" speed="1.5"/>
  </person>
  <person id="person_34" depart="1814" departLane="random" departSpeed="1.00" color="1,0,0">
    <walk from="1174874706" busStop="1174874706" speed="1.5"/>
    <stop busStop="1174874706" duration="574"/>
    <walk from="1174874706" to="4588647" speed="1.5"/>
  </person>
  <person id="person_18" depart="1817" departLane="random" departSpeed="1.00" color="1,0,1">
    <walk from="1174874706" busStop="1174874706" speed="1.5"/>
    <stop busStop="1174874706" duration="71"/>
  </person>
  <person id="person_161" depart="1830" departLane="random" departSpeed="1.00" color="1,0,0">
    <walk from="-917450542" busStop="-917450542" speed="1.5"/>
    <stop busStop="-917450542" duration="265"/>
    <walk from="-917450542" to="1112806233" speed="1.5"/>
  </person>
  <person id="person_278" depart="1906" departLane="random" departSpeed="1.00" color="0,1,0">
    <walk from="-4588647" busStop="-4588647" speed="1.5"/>
    <ride line="trad_line" busStop="-4588647" to="1112806233"/>
    <walk edges="1112806233" speed="1.5"/>
  </person>
  <person id="person_300" depart="1908" departLane="random" departSpeed="1.00" color="0,1,0">
    <walk from="1112806233" busStop="1112806233" speed="1.5"/>
    <ride line="trad_line" busStop="1112806233" to="4588647"/>
    <walk edges="4588647" speed="1.5"/>
  </person>
  <person id="person_122" depart="1916" departLane="random" departSpeed="1.00" color="1,0,1">
    <walk from="1112806233" busStop="1112806233" speed="1.5"/>
    <stop busStop="1112806233" duration="585"/>
  </person>
  <person id="person_164" depart="1932" departLane="random" departSpeed="1.00" color="1,0,1">
    <walk from="1174874706" busStop="1174874706" speed="1.5"/>
    <stop busStop="1174874706" duration="42"/>
  </person>
  <person id="person_119" depart="1940" departLane="random" departSpeed="1.00" color="0,1,0">
    <walk from="1112806233" busStop="1112806233" speed="1.5"/>
    <ride line="trad_line" busStop="1112806233" to="4588647"/>
    <walk edges="4588647" speed="1.5"/>
  </person>
  <person id="person_23" depart="1951" departLane="random" departSpeed="1.00" color="0,1,0">
    <walk from="1112806233" busStop="1112806233" speed="1.5"/>
    <ride line="trad_line" busStop="1112806233" to="4588647"/>
    <walk edges="4588647" speed="1.5"/>
  </person>
  <person id="person_252" depart="1963" departLane="random" departSpeed="1.00" color="1,0,1">
    <walk from="1112806233" busStop="1112806233" speed="1.5"/>
    <stop busStop="1112806233" duration="472"/>
  </person>
  <person id="person_25" depart="1985" departLane="random" departSpeed="1.00" color="1,0,1">
    <walk from="-4588647" busStop="-4588647" speed="1.5"/>
    <stop busStop="-4588647" duration="432"/>
  </person>
  <person id="person_271" depart="2056" departLane="random" departSpeed="1.00" color="0,1,0">
    <walk from="-4588647" busStop="-4588647" speed="1.5"/>
    <ride line="trad_line" busStop="-4588647" to="4588647"/>
    <walk edges="4588647" speed="1.5"/>
  </person>
  <person id="person_201" depart="2090" departLane="random" departSpeed="1.00" color="0,1,0">
    <walk from="1174874706" busStop="1174874706" speed="1.5"/>
    <ride line="trad_line" busStop="1174874706" to="-917450542"/>
    <walk edges="-917450542" speed="1.5"/>
  </person>
  <person id="person_221" depart="2106" departLane="random" departSpeed="1.00" color="1,0,0">
    <walk from="1174874706" busStop="1174874706" speed="1.5"/>
    <stop busStop="1174874706" duration="284"/>
    <walk from="1174874706" to="-917450542" speed="1.5"/>
  </person>
  <person id="person_266" depart="2118" departLane="random" departSpeed="1.00" color="1,0,1">
    <walk from="-4588647" busStop="-4588647" speed="1.5"/>
    <stop busStop="-4588647" duration="219"/>
  </person>
  <person id="person_171" depart="2156" departLane="random" departSpeed="1.00" color="1,0,1">
    <walk from="1174874706" busStop="1174874706" speed="1.5"/>
    <stop busStop="1174874706" duration="283"/>
  </person>
  <person id="person_239" depart="2171" departLane="random" departSpeed="1.00" color="1,0,0">
    <walk from="1112806233" busStop="1112806233" speed="1.5"/>
    <stop busStop="1112806233" duration="296"/>
    <walk from="1112806233" to="4588647" speed="1.5"/>
  </person>
  <person id="person_261" depart="2175" departLane="random" departSpeed="1.00" color="1,0,1">
    <walk from="1174874706" busStop="1174874706" speed="1.5"/>
    <stop busStop="1174874706" duration="115"/>
  </person>
  <person id="person_276" depart="2214" departLane="random" departSpeed="1.00" color="0,1,0">
    <walk from="-4588647" busStop="-4588647" speed="1.5"/>
    <ride line="trad_line" busStop="-4588647" to="1112806233"/>
    <walk edges="1112806233" speed="1.5"/>
  </person>
  <person id="person_281" depart="2232" departLane="random" departSpeed="1.00" color="0,1,0">
    <walk from="-4588647" busStop="-4588647" speed="1.5"/>
    <ride line="trad_line" busStop="-4588647" to="1112806233"/>
    <walk edges="1112806233" speed="1.5"/>
  </person>
  <person id="person_73" depart="2262" departLane="random" departSpeed="1.00" color="1,0,0">
    <walk from="1112806233" busStop="1112806233" speed="1.5"/>
    <stop busStop="1112806233" duration="362"/>
    <walk from="1112806233" to="4588647" speed="1.5"/>
  </person>
  <person id="person_68" depart="2322" departLane="random" departSpeed="1.00" color="0,1,0">
    <walk from="1174874706" busStop="1174874706" speed="1.5"/>
    <ride line="trad_line" busStop="1174874706" to="1112806233"/>
    <walk edges="1112806233" speed="1.5"/>
  </person>
  <person id="person_127" depart="2335" departLane="random" departSpeed="1.00" color="1,0,0">
    <walk from="1112806233" busStop="1112806233" speed="1.5"/>
    <stop busStop="1112806233" duration="328"/>
    <walk from="1112806233" to="4588647" speed="1.5"/>
  </person>
  <person id="person_227" depart="2336" departLane="random" departSpeed="1.00" color="0,1,0">
    <walk from="-917450542" busStop="-917450542" speed="1.5"/>
    <ride line="trad_line" busStop="-917450542" to="4588647"/>
    <walk edges="4588647" speed="1.5"/>
  </person>
  <person id="person_48" depart="2353" departLane="random" departSpeed="1.00" color="1,0,0">
    <walk from="1112806233" busStop="1112806233" speed="1.5"/>
    <stop busStop="1112806233" duration="283"/>
    <walk from="1112806233" to="4588647" speed="1.5"/>
  </person>
  <person id="person_287" depart="2355" departLane="random" departSpeed="1.00" color="1,0,1">
    <walk from="1174874706" busStop="1174874706" speed="1.5"/>
    <stop busStop="1174874706" duration="167"/>
  </person>
  <person id="person_211" depart="2403" departLane="random" departSpeed="1.00" color="1,0,1">
    <walk from="-4588647" busStop="-4588647" speed="1.5"/>
    <stop busStop="-4588647" duration="90"/>
  </person>
  <person id="person_112" depart="2412" departLane="random" departSpeed="1.00" color="1,0,1">
    <walk from="-4588647" busStop="-4588647" speed="1.5"/>
    <stop busStop="-4588647" duration="419"/>
  </person>
  <person id="person_22" depart="2413" departLane="random" departSpeed="1.00" color="1,0,0">
    <walk from="-917450542" busStop="-917450542" speed="1.5"/>
    <stop busStop="-917450542" duration="478"/>
    <walk from="-917450542" to="-4588647" speed="1.5"/>
  </person>
  <person id="person_67" depart="2413" departLane="random" departSpeed="1.00" color="0,1,0">
    <walk from="1174874706" busStop="1174874706" speed="1.5"/>
    <ride line="trad_line" busStop="1174874706" to="4588647"/>
    <walk edges="4588647" speed="1.5"/>
  </person>
  <person id="person_219" depart="2442" departLane="random" departSpeed="1.00" color="1,0,1">
    <walk from="1174874706" busStop="1174874706" speed="1.5"/>
    <stop busStop="1174874706" duration="130"/>
  </person>
  <person id="person_14" depart="2446" departLane="random" departSpeed="1.00" color="1,0,0">
    <walk from="-4588647" busStop="-4588647" speed="1.5"/>
    <stop busStop="-4588647" duration="163"/>
    <walk from="-4588647" to="1112806233" speed="1.5"/>
  </person>
  <person id="person_257" depart="2459" departLane="random" departSpeed="1.00" color="1,0,1">
    <walk from="-917450542" busStop="-917450542" speed="1.5"/>
    <stop busStop="-917450542" duration="552"/>
  </person>
  <person id="person_168" depart="2486" departLane="random" departSpeed="1.00" color="1,0,1">
    <walk from="-4588647" busStop="-4588647" speed="1.5"/>
    <stop busStop="-4588647" duration="32"/>
  </person>
  <person id="person_246" depart="2486" departLane="random" departSpeed="1.00" color="1,0,1">
    <walk from="1174874706" busStop="1174874706" speed="1.5"/>
    <stop busStop="1174874706" duration="163"/>
  </person>
  <person id="person_290" depart="2549" departLane="random" departSpeed="1.00" color="1,0,0">
    <walk from="-4588647" busStop="-4588647" speed="1.5"/>
    <stop busStop="-4588647" duration="497"/>
    <walk from="-4588647" to="1112806233" speed="1.5"/>