<?xml version="1.0" ?>
<routes>
  <personFlow id="pflow1_" begin="0" end="100" number="26" color="1,0,1">
		<walk from="29377703#2" busStop="29377703#2"/>
		<ride busStop="29377703#2" line="trad_line" to="16174062#4"/>
		<walk to="16174062#4"/>
</personFlow>

<personFlow id="pflow2_" begin="0" end="100" number="26" color="1,0,1">
		<walk from="176435844#3" busStop="176435844#3"/>
		<ride busStop="176435844#3" line="trad_line" to="-29377703#2"/>
		<walk to="-29377703#2"/>
</personFlow>
  <person id="person_1" depart="0" departLane="random" departSpeed="1.00">
    <walk from="176435849" busStop="176435849" speed="1.5" color="0,1,0"/>
    <ride line="trad_line" busStop="176435849" to="4332734#2" color="0,0,1"/>
    <walk edges="4332734#2" speed="1.5" color="0,1,0"/>
  </person>
  <person id="person_2" depart="0" departLane="random" departSpeed="1.00">
    <walk from="-29377703#2" busStop="-29377703#2" speed="1.5" color="0,1,0"/>
    <ride line="trad_line" busStop="-29377703#2" to="-29377703#1" color="0,0,1"/>
    <walk edges="-29377703#1" speed="1.5" color="0,1,0"/>
  </person>
  <person id="person_3" depart="0" departLane="random" departSpeed="1.00">
    <walk from="924607338" busStop="924607338" speed="1.5" color="0,1,0"/>
    <ride line="trad_line" busStop="924607338" to="820063579#1" color="0,0,1"/>
    <walk edges="820063579#1" speed="1.5" color="0,1,0"/>
  </person>
  <person id="person_4" depart="0" departLane="random" departSpeed="1.00">
    <walk from="-4332734#0" busStop="-4332734#0" speed="1.5" color="0,1,0"/>
    <ride line="trad_line" busStop="-4332734#0" to="704746731#2" color="0,0,1"/>
    <walk edges="704746731#2" speed="1.5" color="0,1,0"/>
  </person>
  <person id="person_5" depart="0" departLane="random" departSpeed="1.00">
    <walk from="310627474#0" busStop="310627474#0" speed="1.5" color="0,1,0"/>
    <ride line="trad_line" busStop="310627474#0" to="-615456193#0" color="0,0,1"/>
    <walk edges="-615456193#0" speed="1.5" color="0,1,0"/>
  </person>
  <person id="person_6" depart="0" departLane="random" departSpeed="1.00">
    <walk from="575729108#2" busStop="575729108#2" speed="1.5" color="0,1,0"/>
    <ride line="trad_line" busStop="575729108#2" to="-303412427#6" color="0,0,1"/>
    <walk edges="-303412427#6" speed="1.5" color="0,1,0"/>
  </person>
  <person id="person_7" depart="0" departLane="random" departSpeed="1.00">
    <walk from="615456193#2" busStop="615456193#2" speed="1.5" color="0,1,0"/>
    <ride line="trad_line" busStop="615456193#2" to="-575729108#1" color="0,0,1"/>
    <walk edges="-575729108#1" speed="1.5" color="0,1,0"/>
  </person>
  <person id="person_8" depart="0" departLane="random" departSpeed="1.00">
    <walk from="4258656#1" busStop="4258656#1" speed="1.5" color="0,1,0"/>
    <ride line="trad_line" busStop="4258656#1" to="154644778#1" color="0,0,1"/>
    <walk edges="154644778#1" speed="1.5" color="0,1,0"/>
  </person>
  <person id="person_9" depart="0" departLane="random" departSpeed="1.00">
    <walk from="-4478182" busStop="-4478182" speed="1.5" color="0,1,0"/>
    <ride line="trad_line" busStop="-4478182" to="940612553" color="0,0,1"/>
    <walk edges="940612553" speed="1.5" color="0,1,0"/>
  </person>
  <person id="person_10" depart="0" departLane="random" departSpeed="1.00">
    <walk from="-4332734#1" busStop="-4332734#1" speed="1.5" color="0,1,0"/>
    <ride line="trad_line" busStop="-4332734#1" to="54338767#2" color="0,0,1"/>
    <walk edges="54338767#2" speed="1.5" color="0,1,0"/>
  </person>
  <person id="person_11" depart="0" departLane="random" departSpeed="1.00">
    <walk from="4588647#0" busStop="4588647#0" speed="1.5" color="0,1,0"/>
    <ride line="trad_line" busStop="4588647#0" to="-303412427#2" color="0,0,1"/>
    <walk edges="-303412427#2" speed="1.5" color="0,1,0"/>
  </person>
  <person id="person_12" depart="0" departLane="random" departSpeed="1.00">
    <walk from="615478344#1" busStop="615478344#1" speed="1.5" color="0,1,0"/>
    <ride line="trad_line" busStop="615478344#1" to="-303412427#16" color="0,0,1"/>
    <walk edges="-303412427#16" speed="1.5" color="0,1,0"/>
  </person>
  <person id="person_13" depart="0" departLane="random" departSpeed="1.00">
    <walk from="136822580#3" busStop="136822580#3" speed="1.5" color="0,1,0"/>
    <ride line="trad_line" busStop="136822580#3" to="-615478344#1" color="0,0,1"/>
    <walk edges="-615478344#1" speed="1.5" color="0,1,0"/>
  </person>
  <person id="person_14" depart="0" departLane="random" departSpeed="1.00">
    <walk from="303412427#15" busStop="303412427#15" speed="1.5" color="0,1,0"/>
    <ride line="trad_line" busStop="303412427#15" to="-303412427#9" color="0,0,1"/>
    <walk edges="-303412427#9" speed="1.5" color="0,1,0"/>
  </person>
  <person id="person_15" depart="0" departLane="random" departSpeed="1.00">
    <walk from="107396681#5" busStop="107396681#5" speed="1.5" color="0,1,0"/>
    <ride line="trad_line" busStop="107396681#5" to="136822587#1" color="0,0,1"/>
    <walk edges="136822587#1" speed="1.5" color="0,1,0"/>
  </person>
  <person id="person_16" depart="0" departLane="random" departSpeed="1.00">
    <walk from="16174062#0" busStop="16174062#0" speed="1.5" color="0,1,0"/>
    <ride line="trad_line" busStop="16174062#0" to="575729108#3" color="0,0,1"/>
    <walk edges="575729108#3" speed="1.5" color="0,1,0"/>
  </person>
  <person id="person_17" depart="0" departLane="random" departSpeed="1.00">
    <walk from="820063578#0" busStop="820063578#0" speed="1.5" color="0,1,0"/>
    <ride line="trad_line" busStop="820063578#0" to="575729108#1" color="0,0,1"/>
    <walk edges="575729108#1" speed="1.5" color="0,1,0"/>
  </person>
  <person id="person_18" depart="0" departLane="random" departSpeed="1.00">
    <walk from="-4332734#3" busStop="-4332734#3" speed="1.5" color="0,1,0"/>
    <ride line="trad_line" busStop="-4332734#3" to="107396681#5" color="0,0,1"/>
    <walk edges="107396681#5" speed="1.5" color="0,1,0"/>
  </person>
  <person id="person_19" depart="0" departLane="random" departSpeed="1.00">
    <walk from="121188638" busStop="121188638" speed="1.5" color="0,1,0"/>
    <ride line="trad_line" busStop="121188638" to="940627086" color="0,0,1"/>
    <walk edges="940627086" speed="1.5" color="0,1,0"/>
  </person>
  <person id="person_20" depart="0" departLane="random" departSpeed="1.00">
    <walk from="729164042#1" busStop="729164042#1" speed="1.5" color="0,1,0"/>
    <ride line="trad_line" busStop="729164042#1" to="-303412427#1" color="0,0,1"/>
    <walk edges="-303412427#1" speed="1.5" color="0,1,0"/>
  </person>
  <person id="person_21" depart="0" departLane="random" departSpeed="1.00">
    <walk from="820063582#0" busStop="820063582#0" speed="1.5" color="0,1,0"/>
    <ride line="trad_line" busStop="820063582#0" to="-82694445#2" color="0,0,1"/>
    <walk edges="-82694445#2" speed="1.5" color="0,1,0"/>
  </person>
  <person id="person_22" depart="0" departLane="random" departSpeed="1.00">
    <walk from="820063585" busStop="820063585" speed="1.5" color="0,1,0"/>
    <ride line="trad_line" busStop="820063585" to="820063587#0" color="0,0,1"/>
    <walk edges="820063587#0" speed="1.5" color="0,1,0"/>
  </person>
  <person id="person_23" depart="0" departLane="random" departSpeed="1.00">
    <walk from="-303412427#10" busStop="-303412427#10" speed="1.5" color="0,1,0"/>
    <ride line="trad_line" busStop="-303412427#10" to="-303412427#1" color="0,0,1"/>
    <walk edges="-303412427#1" speed="1.5" color="0,1,0"/>
  </person>
  <person id="person_24" depart="0" departLane="random" departSpeed="1.00">
    <walk from="136822587#1" busStop="136822587#1" speed="1.5" color="0,1,0"/>
    <ride line="trad_line" busStop="136822587#1" to="940627086" color="0,0,1"/>
    <walk edges="940627086" speed="1.5" color="0,1,0"/>
  </person>
  <person id="person_25" depart="0" departLane="random" departSpeed="1.00">
    <walk from="-303412427#15" busStop="-303412427#15" speed="1.5" color="0,1,0"/>
    <ride line="trad_line" busStop="-303412427#15" to="-303412427#12" color="0,0,1"/>
    <walk edges="-303412427#12" speed="1.5" color="0,1,0"/>
  </person>
  <person id="person_26" depart="0" departLane="random" departSpeed="1.00">
    <walk from="704746731#3" busStop="704746731#3" speed="1.5" color="0,1,0"/>
    <ride line="trad_line" busStop="704746731#3" to="-924607337#2" color="0,0,1"/>
    <walk edges="-924607337#2" speed="1.5" color="0,1,0"/>
  </person>
  <person id="person_27" depart="0" departLane="random" departSpeed="1.00">
    <walk from="615478344#0" busStop="615478344#0" speed="1.5" color="0,1,0"/>
    <ride line="trad_line" busStop="615478344#0" to="310627474#3" color="0,0,1"/>
    <walk edges="310627474#3" speed="1.5" color="0,1,0"/>
  </person>
  <person id="person_28" depart="0" departLane="random" departSpeed="1.00">
    <walk from="1074607189#0" busStop="1074607189#0" speed="1.5" color="0,1,0"/>
    <ride line="trad_line" busStop="1074607189#0" to="136822587#0" color="0,0,1"/>
    <walk edges="136822587#0" speed="1.5" color="0,1,0"/>
  </person>
  <person id="person_29" depart="0" departLane="random" departSpeed="1.00">
    <walk from="704746731#2" busStop="704746731#2" speed="1.5" color="0,1,0"/>
    <ride line="trad_line" busStop="704746731#2" to="-29377703#1" color="0,0,1"/>
    <walk edges="-29377703#1" speed="1.5" color="0,1,0"/>
  </person>
  <person id="person_30" depart="0" departLane="random" departSpeed="1.00">
    <walk from="176435844#3" busStop="176435844#3" speed="1.5" color="0,1,0"/>
    <ride line="trad_line" busStop="176435844#3" to="729164041#1" color="0,0,1"/>
    <walk edges="729164041#1" speed="1.5" color="0,1,0"/>
  </person>
</routes>
