<?xml version="1.0" ?>
<routes>
  <person id="person_898" depart="1" departLane="random" departSpeed="1.00" color="0,1,0">
    <walk from="119883577#8" busStop="119883577#8" speed="1.5"/>
    <ride line="trad_line" busStop="119883577#8" to="-187486758#1"/>
    <walk edges="-187486758#1" speed="1.5"/>
  </person>
  <person id="person_473" depart="2" departLane="random" departSpeed="1.00" color="1,0,0">
    <walk from="310627474#1" busStop="310627474#1" speed="1.5"/>
    <stop busStop="310627474#1" duration="503"/>
    <walk from="310627474#1" to="729164042#1" speed="1.5"/>
  </person>
  <person id="person_610" depart="2" departLane="random" departSpeed="1.00" color="1,0,1">
    <walk from="82694445#1" busStop="82694445#1" speed="1.5"/>
    <stop busStop="82694445#1" duration="152"/>
  </person>
  <person id="person_85" depart="3" departLane="random" departSpeed="1.00" color="1,0,0">
    <walk from="136822580#3" busStop="136822580#3" speed="1.5"/>
    <stop busStop="136822580#3" duration="409"/>
    <walk from="136822580#3" to="-615478344#1" speed="1.5"/>
  </person>
  <person id="person_205" depart="3" departLane="random" departSpeed="1.00" color="1,0,1">
    <walk from="4332734#6" busStop="4332734#6" speed="1.5"/>
    <stop busStop="4332734#6" duration="301"/>
  </person>
  <person id="person_280" depart="3" departLane="random" departSpeed="1.00" color="0,1,0">
    <walk from="923261416" busStop="923261416" speed="1.5"/>
    <ride line="trad_line" busStop="923261416" to="-187486758#5"/>
    <walk edges="-187486758#5" speed="1.5"/>
  </person>
  <person id="person_687" depart="3" departLane="random" departSpeed="1.00" color="1,0,0">
    <walk from="176435844#7" busStop="176435844#7" speed="1.5"/>
    <stop busStop="176435844#7" duration="343"/>
    <walk from="176435844#7" to="4332734#1" speed="1.5"/>
  </person>
  <person id="person_233" depart="4" departLane="random" departSpeed="1.00" color="1,0,1">
    <walk from="303412427#12" busStop="303412427#12" speed="1.5"/>
    <stop busStop="303412427#12" duration="77"/>
  </person>
  <person id="person_262" depart="4" departLane="random" departSpeed="1.00" color="1,0,1">
    <walk from="4332734#4" busStop="4332734#4" speed="1.5"/>
    <stop busStop="4332734#4" duration="109"/>
  </person>
  <person id="person_400" depart="4" departLane="random" departSpeed="1.00" color="1,0,0">
    <walk from="119883577#10" busStop="119883577#10" speed="1.5"/>
    <stop busStop="119883577#10" duration="119"/>
    <walk from="119883577#10" to="-303412427#10" speed="1.5"/>
  </person>
  <person id="person_724" depart="4" departLane="random" departSpeed="1.00" color="0,1,0">
    <walk from="4588647#0" busStop="4588647#0" speed="1.5"/>
    <ride line="trad_line" busStop="4588647#0" to="805198994#1"/>
    <walk edges="805198994#1" speed="1.5"/>
  </person>
  <person id="person_64" depart="5" departLane="random" departSpeed="1.00" color="1,0,1">
    <walk from="1158575268" busStop="1158575268" speed="1.5"/>
    <stop busStop="1158575268" duration="78"/>
  </person>
  <person id="person_292" depart="5" departLane="random" departSpeed="1.00" color="0,1,0">
    <walk from="303412427#2" busStop="303412427#2" speed="1.5"/>
    <ride line="trad_line" busStop="303412427#2" to="-187486758#0"/>
    <walk edges="-187486758#0" speed="1.5"/>
  </person>
  <person id="person_299" depart="5" departLane="random" departSpeed="1.00" color="0,1,0">
    <walk from="136822587#0" busStop="136822587#0" speed="1.5"/>
    <ride line="trad_line" busStop="136822587#0" to="729164042#1"/>
    <walk edges="729164042#1" speed="1.5"/>
  </person>
  <person id="person_495" depart="5" departLane="random" departSpeed="1.00" color="1,0,1">
    <walk from="575729108#3" busStop="575729108#3" speed="1.5"/>
    <stop busStop="575729108#3" duration="539"/>
  </person>
  <person id="person_597" depart="5" departLane="random" departSpeed="1.00" color="0,1,0">
    <walk from="1018627464" busStop="1018627464" speed="1.5"/>
    <ride line="trad_line" busStop="1018627464" to="805198994#1"/>
    <walk edges="805198994#1" speed="1.5"/>
  </person>
  <person id="person_731" depart="6" departLane="random" departSpeed="1.00" color="1,0,0">
    <walk from="4258656#1" busStop="4258656#1" speed="1.5"/>
    <stop busStop="4258656#1" duration="535"/>
    <walk from="4258656#1" to="48630242#1" speed="1.5"/>
  </person>
  <person id="person_232" depart="7" departLane="random" departSpeed="1.00" color="1,0,1">
    <walk from="29377703#1" busStop="29377703#1" speed="1.5"/>
    <stop busStop="29377703#1" duration="470"/>
  </person>
  <person id="person_391" depart="7" departLane="random" departSpeed="1.00" color="1,0,1">
    <walk from="-4478182" busStop="-4478182" speed="1.5"/>
    <stop busStop="-4478182" duration="206"/>
  </person>
  <person id="person_869" depart="7" departLane="random" departSpeed="1.00" color="1,0,1">
    <walk from="757990561" busStop="757990561" speed="1.5"/>
    <stop busStop="757990561" duration="193"/>
  </person>
  <person id="person_881" depart="7" departLane="random" departSpeed="1.00" color="1,0,1">
    <walk from="-615456193#2" busStop="-615456193#2" speed="1.5"/>
    <stop busStop="-615456193#2" duration="361"/>
  </person>
  <person id="person_403" depart="8" departLane="random" departSpeed="1.00" color="1,0,1">
    <walk from="-924607338" busStop="-924607338" speed="1.5"/>
    <stop busStop="-924607338" duration="128"/>
  </person>
  <person id="person_446" depart="8" departLane="random" departSpeed="1.00" color="1,0,0">
    <walk from="615478344#0" busStop="615478344#0" speed="1.5"/>
    <stop busStop="615478344#0" duration="251"/>
    <walk from="615478344#0" to="-82694458#0" speed="1.5"/>
  </person>
  <person id="person_647" depart="8" departLane="random" departSpeed="1.00" color="0,1,0">
    <walk from="-82694458#0" busStop="-82694458#0" speed="1.5"/>
    <ride line="trad_line" busStop="-82694458#0" to="-29377703#2"/>
    <walk edges="-29377703#2" speed="1.5"/>
  </person>
  <person id="person_654" depart="8" departLane="random" departSpeed="1.00" color="0,1,0">
    <walk from="1072039865#1" busStop="1072039865#1" speed="1.5"/>
    <ride line="trad_line" busStop="1072039865#1" to="-303412427#14"/>
    <walk edges="-303412427#14" speed="1.5"/>
  </person>
  <person id="person_659" depart="8" departLane="random" departSpeed="1.00" color="1,0,1">
    <walk from="-4588647#3" busStop="-4588647#3" speed="1.5"/>
    <stop busStop="-4588647#3" duration="379"/>
  </person>
  <person id="person_435" depart="9" departLane="random" departSpeed="1.00" color="1,0,0">
    <walk from="107396681#0" busStop="107396681#0" speed="1.5"/>
    <stop busStop="107396681#0" duration="363"/>
    <walk from="107396681#0" to="-303412427#10" speed="1.5"/>
  </person>
  <person id="person_444" depart="9" departLane="random" departSpeed="1.00" color="1,0,1">
    <walk from="48630242#2" busStop="48630242#2" speed="1.5"/>
    <stop busStop="48630242#2" duration="305"/>
  </person>
  <person id="person_773" depart="10" departLane="random" departSpeed="1.00" color="1,0,0">
    <walk from="729164041#1" busStop="729164041#1" speed="1.5"/>
    <stop busStop="729164041#1" duration="109"/>
    <walk from="729164041#1" to="-29377703#2" speed="1.5"/>
  </person>
  <person id="person_892" depart="10" departLane="random" departSpeed="1.00" color="1,0,1">
    <walk from="154644778#1" busStop="154644778#1" speed="1.5"/>
    <stop busStop="154644778#1" duration="108"/>
  </person>
  <person id="person_40" depart="11" departLane="random" departSpeed="1.00" color="0,1,0">
    <walk from="820063578#1" busStop="820063578#1" speed="1.5"/>
    <ride line="trad_line" busStop="820063578#1" to="4332734#7"/>
    <walk edges="4332734#7" speed="1.5"/>
  </person>
  <person id="person_71" depart="11" departLane="random" departSpeed="1.00" color="0,1,0">
    <walk from="161754856" busStop="161754856" speed="1.5"/>
    <ride line="trad_line" busStop="161754856" to="-923261416"/>
    <walk edges="-923261416" speed="1.5"/>
  </person>
  <person id="person_81" depart="11" departLane="random" departSpeed="1.00" color="1,0,0">
    <walk from="161754855#1" busStop="161754855#1" speed="1.5"/>
    <stop busStop="161754855#1" duration="319"/>
    <walk from="161754855#1" to="-1176045778" speed="1.5"/>
  </person>
  <person id="person_159" depart="11" departLane="random" departSpeed="1.00" color="0,1,0">
    <walk from="119883577#5" busStop="119883577#5" speed="1.5"/>
    <ride line="trad_line" busStop="119883577#5" to="402897988#1"/>
    <walk edges="402897988#1" speed="1.5"/>
  </person>
  <person id="person_247" depart="11" departLane="random" departSpeed="1.00" color="0,1,0">
    <walk from="615478345" busStop="615478345" speed="1.5"/>
    <ride line="trad_line" busStop="615478345" to="820063582#0"/>
    <walk edges="820063582#0" speed="1.5"/>
  </person>
  <person id="person_829" depart="11" departLane="random" departSpeed="1.00" color="1,0,0">
    <walk from="4332731" busStop="4332731" speed="1.5"/>
    <stop busStop="4332731" duration="251"/>
    <walk from="4332731" to="-368461882#0" speed="1.5"/>
  </person>
  <person id="person_178" depart="13" departLane="random" departSpeed="1.00" color="1,0,0">
    <walk from="161754856" busStop="161754856" speed="1.5"/>
    <stop busStop="161754856" duration="410"/>
    <walk from="161754856" to="136822587#3" speed="1.5"/>
  </person>
  <person id="person_546" depart="13" departLane="random" departSpeed="1.00" color="1,0,0">
    <walk from="5019952#4" busStop="5019952#4" speed="1.5"/>
    <stop busStop="5019952#4" duration="409"/>
    <walk from="5019952#4" to="4478182" speed="1.5"/>
  </person>
  <person id="person_154" depart="14" departLane="random" departSpeed="1.00" color="0,1,0">
    <walk from="107396681#5" busStop="107396681#5" speed="1.5"/>
    <ride line="trad_line" busStop="107396681#5" to="4588647#4"/>
    <walk edges="4588647#4" speed="1.5"/>
  </person>
  <person id="person_142" depart="15" departLane="random" departSpeed="1.00" color="1,0,0">
    <walk from="-29377703#4" busStop="-29377703#4" speed="1.5"/>
    <stop busStop="-29377703#4" duration="517"/>
    <walk from="-29377703#4" to="-29377703#2" speed="1.5"/>
  </person>
  <person id="person_168" depart="15" departLane="random" departSpeed="1.00" color="0,1,0">
    <walk from="615456193#0" busStop="615456193#0" speed="1.5"/>
    <ride line="trad_line" busStop="615456193#0" to="820063582#1"/>
    <walk edges="820063582#1" speed="1.5"/>
  </person>
  <person id="person_599" depart="15" departLane="random" departSpeed="1.00" color="1,0,1">
    <walk from="-303412427#18" busStop="-303412427#18" speed="1.5"/>
    <stop busStop="-303412427#18" duration="132"/>
  </person>
  <person id="person_323" depart="17" departLane="random" departSpeed="1.00" color="1,0,0">
    <walk from="1158575268" busStop="1158575268" speed="1.5"/>
    <stop busStop="1158575268" duration="498"/>
    <walk from="1158575268" to="1018627464" speed="1.5"/>
  </person>
  <person id="person_523" depart="17" departLane="random" departSpeed="1.00" color="1,0,1">
    <walk from="82694445#2" busStop="82694445#2" speed="1.5"/>
    <stop busStop="82694445#2" duration="527"/>
  </person>
  <person id="person_395" depart="18" departLane="random" departSpeed="1.00" color="1,0,1">
    <walk from="-575729108#2" busStop="-575729108#2" speed="1.5"/>
    <stop busStop="-575729108#2" duration="363"/>
  </person>
  <person id="person_228" depart="19" departLane="random" departSpeed="1.00" color="1,0,0">
    <walk from="1112806233" busStop="1112806233" speed="1.5"/>
    <stop busStop="1112806233" duration="256"/>
    <walk from="1112806233" to="-615478344#0" speed="1.5"/>
  </person>
  <person id="person_286" depart="19" departLane="random" departSpeed="1.00" color="0,1,0">
    <walk from="16174062#2" busStop="16174062#2" speed="1.5"/>
    <ride line="trad_line" busStop="16174062#2" to="32981461"/>
    <walk edges="32981461" speed="1.5"/>
  </person>
  <person id="person_411" depart="20" departLane="random" departSpeed="1.00" color="0,1,0">
    <walk from="368461882#1" busStop="368461882#1" speed="1.5"/>
    <ride line="trad_line" busStop="368461882#1" to="176435844#0"/>
    <walk edges="176435844#0" speed="1.5"/>
  </person>
  <person id="person_371" depart="21" departLane="random" departSpeed="1.00" color="0,1,0">
    <walk from="924607337#3" busStop="924607337#3" speed="1.5"/>
    <ride line="trad_line" busStop="924607337#3" to="729164042#1"/>
    <walk edges="729164042#1" speed="1.5"/>
  </person>
  <person id="person_813" depart="22" departLane="random" departSpeed="1.00" color="0,1,0">
    <walk from="820063582#0" busStop="820063582#0" speed="1.5"/>
    <ride line="trad_line" busStop="820063582#0" to="-924607337#3"/>
    <walk edges="-924607337#3" speed="1.5"/>
  </person>
  <person id="person_633" depart="23" departLane="random" departSpeed="1.00" color="1,0,1">
    <walk from="48630242#3" busStop="48630242#3" speed="1.5"/>
    <stop busStop="48630242#3" duration="111"/>
  </person>
  <person id="person_821" depart="23" departLane="random" departSpeed="1.00" color="1,0,0">
    <walk from="1074607188" busStop="1074607188" speed="1.5"/>
    <stop busStop="1074607188" duration="197"/>
    <walk from="1074607188" to="-303412427#1" speed="1.5"/>
  </person>
  <person id="person_840" depart="23" departLane="random" departSpeed="1.00" color="0,1,0">
    <walk from="4332734#6" busStop="4332734#6" speed="1.5"/>
    <ride line="trad_line" busStop="4332734#6" to="-82694458#0"/>
    <walk edges="-82694458#0" speed="1.5"/>
  </person>
  <person id="person_57" depart="25" departLane="random" departSpeed="1.00" color="0,1,0">
    <walk from="820063578#0" busStop="820063578#0" speed="1.5"/>
    <ride line="trad_line" busStop="820063578#0" to="-303412427#1"/>
    <walk edges="-303412427#1" speed="1.5"/>
  </person>
  <person id="person_494" depart="25" departLane="random" departSpeed="1.00" color="0,1,0">
    <walk from="-924607337#3" busStop="-924607337#3" speed="1.5"/>
    <ride line="trad_line" busStop="-924607337#3" to="-303412427#18"/>
    <walk edges="-303412427#18" speed="1.5"/>
  </person>
  <person id="person_853" depart="26" departLane="random" departSpeed="1.00" color="1,0,1">
    <walk from="4332734#3" busStop="4332734#3" speed="1.5"/>
    <stop busStop="4332734#3" duration="481"/>
  </person>
  <person id="person_10" depart="27" departLane="random" departSpeed="1.00" color="0,1,0">
    <walk from="303412427#1" busStop="303412427#1" speed="1.5"/>
    <ride line="trad_line" busStop="303412427#1" to="303412427#8"/>
    <walk edges="303412427#8" speed="1.5"/>
  </person>
  <person id="person_185" depart="27" departLane="random" departSpeed="1.00" color="1,0,1">
    <walk from="685156794#0" busStop="685156794#0" speed="1.5"/>
    <stop busStop="685156794#0" duration="375"/>
  </person>
  <person id="person_535" depart="27" departLane="random" departSpeed="1.00" color="1,0,1">
    <walk from="924607337#4" busStop="924607337#4" speed="1.5"/>
    <stop busStop="924607337#4" duration="432"/>
  </person>
  <person id="person_655" depart="27" departLane="random" departSpeed="1.00" color="1,0,0">
    <walk from="-303412427#14" busStop="-303412427#14" speed="1.5"/>
    <stop busStop="-303412427#14" duration="84"/>
    <walk from="-303412427#14" to="-303412427#2" speed="1.5"/>
  </person>
  <person id="person_700" depart="27" departLane="random" departSpeed="1.00" color="1,0,1">
    <walk from="-82694458#0" busStop="-82694458#0" speed="1.5"/>
    <stop busStop="-82694458#0" duration="102"/>
  </person>
  <person id="person_686" depart="28" departLane="random" departSpeed="1.00" color="0,1,0">
    <walk from="615456193#1" busStop="615456193#1" speed="1.5"/>
    <ride line="trad_line" busStop="615456193#1" to="126342421"/>
    <walk edges="126342421" speed="1.5"/>
  </person>
  <person id="person_734" depart="28" departLane="random" departSpeed="1.00" color="1,0,1">
    <walk from="-303412427#10" busStop="-303412427#10" speed="1.5"/>
    <stop busStop="-303412427#10" duration="103"/>
  </person>
  <person id="person_738" depart="28" departLane="random" departSpeed="1.00" color="1,0,0">
    <walk from="820063587#1" busStop="820063587#1" speed="1.5"/>
    <stop busStop="820063587#1" duration="425"/>
    <walk from="820063587#1" to="-303412427#13" speed="1.5"/>
  </person>
  <person id="person_251" depart="29" departLane="random" departSpeed="1.00" color="1,0,1">
    <walk from="-303412427#10" busStop="-303412427#10" speed="1.5"/>
    <stop busStop="-303412427#10" duration="512"/>
  </person>
  <person id="person_468" depart="29" departLane="random" departSpeed="1.00" color="0,1,0">
    <walk from="176435844#3" busStop="176435844#3" speed="1.5"/>
    <ride line="trad_line" busStop="176435844#3" to="-615456193#2"/>
    <walk edges="-615456193#2" speed="1.5"/>
  </person>
  <person id="person_256" depart="31" departLane="random" departSpeed="1.00" color="0,1,0">
    <walk from="-48630242#1" busStop="-48630242#1" speed="1.5"/>
    <ride line="trad_line" busStop="-48630242#1" to="-29377703#2"/>
    <walk edges="-29377703#2" speed="1.5"/>
  </person>
  <person id="person_306" depart="31" departLane="random" departSpeed="1.00" color="1,0,0">
    <walk from="303412427#7" busStop="303412427#7" speed="1.5"/>
    <stop busStop="303412427#7" duration="206"/>
    <walk from="303412427#7" to="-82694458#0" speed="1.5"/>
  </person>
  <person id="person_392" depart="31" departLane="random" departSpeed="1.00" color="0,1,0">
    <walk from="119883577#10" busStop="119883577#10" speed="1.5"/>
    <ride line="trad_line" busStop="119883577#10" to="-368461882#0"/>
    <walk edges="-368461882#0" speed="1.5"/>
  </person>
  <person id="person_747" depart="31" departLane="random" departSpeed="1.00" color="1,0,0">
    <walk from="-575729108#1" busStop="-575729108#1" speed="1.5"/>
    <stop busStop="-575729108#1" duration="493"/>
    <walk from="-575729108#1" to="745183364#0" speed="1.5"/>
  </person>
  <person id="person_200" depart="32" departLane="random" departSpeed="1.00" color="0,1,0">
    <walk from="303412427#16" busStop="303412427#16" speed="1.5"/>
    <ride line="trad_line" busStop="303412427#16" to="-924607337#4"/>
    <walk edges="-924607337#4" speed="1.5"/>
  </person>
  <person id="person_4" depart="33" departLane="random" departSpeed="1.00" color="0,1,0">
    <walk from="745183364#1" busStop="745183364#1" speed="1.5"/>
    <ride line="trad_line" busStop="745183364#1" to="-924607337#4"/>
    <walk edges="-924607337#4" speed="1.5"/>
  </person>
  <person id="person_376" depart="34" departLane="random" departSpeed="1.00" color="1,0,1">
    <walk from="-4588647#4" busStop="-4588647#4" speed="1.5"/>
    <stop busStop="-4588647#4" duration="187"/>
  </person>
  <person id="person_382" depart="34" departLane="random" departSpeed="1.00" color="1,0,0">
    <walk from="121188638" busStop="121188638" speed="1.5"/>
    <stop busStop="121188638" duration="480"/>
    <walk from="121188638" to="-924607337#1" speed="1.5"/>
  </person>
  <person id="person_746" depart="34" departLane="random" departSpeed="1.00" color="1,0,1">
    <walk from="4332734#0" busStop="4332734#0" speed="1.5"/>
    <stop busStop="4332734#0" duration="464"/>
  </person>
  <person id="person_870" depart="35" departLane="random" departSpeed="1.00" color="0,1,0">
    <walk from="4258656#0" busStop="4258656#0" speed="1.5"/>
    <ride line="trad_line" busStop="4258656#0" to="4332734#6"/>
    <walk edges="4332734#6" speed="1.5"/>
  </person>
  <person id="person_47" depart="36" departLane="random" departSpeed="1.00" color="0,1,0">
    <walk from="303412427#16" busStop="303412427#16" speed="1.5"/>
    <ride line="trad_line" busStop="303412427#16" to="5019952#1"/>
    <walk edges="5019952#1" speed="1.5"/>
  </person>
  <person id="person_143" depart="36" departLane="random" departSpeed="1.00" color="1,0,1">
    <walk from="29377703#2" busStop="29377703#2" speed="1.5"/>
    <stop busStop="29377703#2" duration="288"/>
  </person>
  <person id="person_591" depart="37" departLane="random" departSpeed="1.00" color="0,1,0">
    <walk from="4258656#0" busStop="4258656#0" speed="1.5"/>
    <ride line="trad_line" busStop="4258656#0" to="-615456193#2"/>
    <walk edges="-615456193#2" speed="1.5"/>
  </person>
  <person id="person_385" depart="38" departLane="random" departSpeed="1.00" color="0,1,0">
    <walk from="-615478344#1" busStop="-615478344#1" speed="1.5"/>
    <ride line="trad_line" busStop="-615478344#1" to="-303412427#10"/>
    <walk edges="-303412427#10" speed="1.5"/>
  </person>
  <person id="person_409" depart="39" departLane="random" departSpeed="1.00" color="0,1,0">
    <walk from="-82694458#0" busStop="-82694458#0" speed="1.5"/>
    <ride line="trad_line" busStop="-82694458#0" to="-303412427#15"/>
    <walk edges="-303412427#15" speed="1.5"/>
  </person>
  <person id="person_803" depart="39" departLane="random" departSpeed="1.00" color="1,0,0">
    <walk from="-924607337#2" busStop="-924607337#2" speed="1.5"/>
    <stop busStop="-924607337#2" duration="55"/>
    <walk from="-924607337#2" to="-924607337#0" speed="1.5"/>
  </person>
  <person id="person_825" depart="39" departLane="random" departSpeed="1.00" color="0,1,0">
    <walk from="-615478344#0" busStop="-615478344#0" speed="1.5"/>
    <ride line="trad_line" busStop="-615478344#0" to="-29377703#4"/>
    <walk edges="-29377703#4" speed="1.5"/>
  </person>
  <person id="person_195" depart="40" departLane="random" departSpeed="1.00" color="1,0,0">
    <walk from="-575729108#3" busStop="-575729108#3" speed="1.5"/>
    <stop busStop="-575729108#3" duration="487"/>
    <walk from="-575729108#3" to="757990562" speed="1.5"/>
  </person>
  <person id="person_222" depart="40" departLane="random" departSpeed="1.00" color="1,0,0">
    <walk from="4332734#2" busStop="4332734#2" speed="1.5"/>
    <stop busStop="4332734#2" duration="75"/>
    <walk from="4332734#2" to="4332734#6" speed="1.5"/>
  </person>
  <person id="person_575" depart="40" departLane="random" departSpeed="1.00" color="1,0,0">
    <walk from="1156612124" busStop="1156612124" speed="1.5"/>
    <stop busStop="1156612124" duration="100"/>
    <walk from="1156612124" to="-303412427#10" speed="1.5"/>
  </person>
  <person id="person_899" depart="40" departLane="random" departSpeed="1.00" color="1,0,1">
    <walk from="1148489399#1" busStop="1148489399#1" speed="1.5"/>
    <stop busStop="1148489399#1" duration="401"/>
  </person>
  <person id="person_26" depart="42" departLane="random" departSpeed="1.00" color="0,1,0">
    <walk from="-575729555" busStop="-575729555" speed="1.5"/>
    <ride line="trad_line" busStop="-575729555" to="310627474#3"/>
    <walk edges="310627474#3" speed="1.5"/>
  </person>
  <person id="person_149" depart="42" departLane="random" departSpeed="1.00" color="1,0,0">
    <walk from="29377703#4" busStop="29377703#4" speed="1.5"/>
    <stop busStop="29377703#4" duration="284"/>
    <walk from="29377703#4" to="303412427#17" speed="1.5"/>
  </person>
  <person id="person_229" depart="42" departLane="random" departSpeed="1.00" color="0,1,0">
    <walk from="-303412427#2" busStop="-303412427#2" speed="1.5"/>
    <ride line="trad_line" busStop="-303412427#2" to="-29377703#1"/>
    <walk edges="-29377703#1" speed="1.5"/>
  </person>
  <person id="person_584" depart="42" departLane="random" departSpeed="1.00" color="1,0,0">
    <walk from="-303412427#8" busStop="-303412427#8" speed="1.5"/>
    <stop busStop="-303412427#8" duration="491"/>
    <walk from="-303412427#8" to="-29377703#1" speed="1.5"/>
  </person>
  <person id="person_620" depart="42" departLane="random" departSpeed="1.00" color="1,0,1">
    <walk from="615478344#0" busStop="615478344#0" speed="1.5"/>
    <stop busStop="615478344#0" duration="314"/>
  </person>
  <person id="person_696" depart="42" departLane="random" departSpeed="1.00" color="1,0,0">
    <walk from="-303412427#14" busStop="-303412427#14" speed="1.5"/>
    <stop busStop="-303412427#14" duration="558"/>
    <walk from="-303412427#14" to="-303412427#13" speed="1.5"/>
  </person>
  <person id="person_1" depart="43" departLane="random" departSpeed="1.00" color="0,1,0">
    <walk from="310627474#7" busStop="310627474#7" speed="1.5"/>
    <ride line="trad_line" busStop="310627474#7" to="121188638"/>
    <walk edges="121188638" speed="1.5"/>
  </person>
  <person id="person_477" depart="43" departLane="random" departSpeed="1.00" color="1,0,1">
    <walk from="4086429" busStop="4086429" speed="1.5"/>
    <stop busStop="4086429" duration="50"/>
  </person>
  <person id="person_664" depart="43" departLane="random" departSpeed="1.00" color="0,1,0">
    <walk from="303412427#13" busStop="303412427#13" speed="1.5"/>
    <ride line="trad_line" busStop="303412427#13" to="575729552#1"/>
    <walk edges="575729552#1" speed="1.5"/>
  </person>
  <person id="person_777" depart="44" departLane="random" departSpeed="1.00" color="0,1,0">
    <walk from="1072039865#1" busStop="1072039865#1" speed="1.5"/>
    <ride line="trad_line" busStop="1072039865#1" to="745183364#0"/>
    <walk edges="745183364#0" speed="1.5"/>
  </person>
  <person id="person_342" depart="45" departLane="random" departSpeed="1.00" color="0,1,0">
    <walk from="729164041#1" busStop="729164041#1" speed="1.5"/>
    <ride line="trad_line" busStop="729164041#1" to="-82694458#0"/>
    <walk edges="-82694458#0" speed="1.5"/>
  </person>
  <person id="person_541" depart="46" departLane="random" departSpeed="1.00" color="0,1,0">
    <walk from="107396681#0" busStop="107396681#0" speed="1.5"/>
    <ride line="trad_line" busStop="107396681#0" to="-303412427#18"/>
    <walk edges="-303412427#18" speed="1.5"/>
  </person>
  <person id="person_604" depart="47" departLane="random" departSpeed="1.00" color="1,0,1">
    <walk from="615456193#1" busStop="615456193#1" speed="1.5"/>
    <stop busStop="615456193#1" duration="409"/>
  </person>
  <person id="person_605" depart="47" departLane="random" departSpeed="1.00" color="1,0,1">
    <walk from="820063578#0" busStop="820063578#0" speed="1.5"/>
    <stop busStop="820063578#0" duration="77"/>
  </person>
  <person id="person_563" depart="48" departLane="random" departSpeed="1.00" color="0,1,0">
    <walk from="-924607337#4" busStop="-924607337#4" speed="1.5"/>
    <ride line="trad_line" busStop="-924607337#4" to="-303412427#3"/>
    <walk edges="-303412427#3" speed="1.5"/>
  </person>
  <person id="person_638" depart="48" departLane="random" departSpeed="1.00" color="0,1,0">
    <walk from="1176045778" busStop="1176045778" speed="1.5"/>
    <ride line="trad_line" busStop="1176045778" to="119883577#5"/>
    <walk edges="119883577#5" speed="1.5"/>
  </person>
  <person id="person_767" depart="49" departLane="random" departSpeed="1.00" color="0,1,0">
    <walk from="1018627464" busStop="1018627464" speed="1.5"/>
    <ride line="trad_line" busStop="1018627464" to="820063578#0"/>
    <walk edges="820063578#0" speed="1.5"/>
  </person>
  <person id="person_713" depart="50" departLane="random" departSpeed="1.00" color="0,1,0">
    <walk from="745183362" busStop="745183362" speed="1.5"/>
    <ride line="trad_line" busStop="745183362" to="-82694445#2"/>
    <walk edges="-82694445#2" speed="1.5"/>
  </person>
  <person id="person_845" depart="50" departLane="random" departSpeed="1.00" color="0,1,0">
    <walk from="923261416" busStop="923261416" speed="1.5"/>
    <ride line="trad_line" busStop="923261416" to="745183364#0"/>
    <walk edges="745183364#0" speed="1.5"/>
  </person>
  <person id="person_688" depart="52" departLane="random" departSpeed="1.00" color="1,0,0">
    <walk from="615456193#1" busStop="615456193#1" speed="1.5"/>
    <stop busStop="615456193#1" duration="452"/>
    <walk from="615456193#1" to="368461882#1" speed="1.5"/>
  </person>
  <person id="person_278" depart="54" departLane="random" departSpeed="1.00" color="1,0,0">
    <walk from="121188638" busStop="121188638" speed="1.5"/>
    <stop busStop="121188638" duration="423"/>
    <walk from="121188638" to="745183364#0" speed="1.5"/>
  </person>
  <person id="person_461" depart="54" departLane="random" departSpeed="1.00" color="0,1,0">
    <walk from="-303412427#7" busStop="-303412427#7" speed="1.5"/>
    <ride line="trad_line" busStop="-303412427#7" to="-303412427#5"/>
    <walk edges="-303412427#5" speed="1.5"/>
  </person>
  <person id="person_491" depart="54" departLane="random" departSpeed="1.00" color="1,0,1">
    <walk from="29377703#1" busStop="29377703#1" speed="1.5"/>
    <stop busStop="29377703#1" duration="343"/>
  </person>
  <person id="person_641" depart="54" departLane="random" departSpeed="1.00" color="1,0,1">
    <walk from="820063587#0" busStop="820063587#0" speed="1.5"/>
    <stop busStop="820063587#0" duration="554"/>
  </person>
  <person id="person_779" depart="54" departLane="random" departSpeed="1.00" color="0,1,0">
    <walk from="805198994#0" busStop="805198994#0" speed="1.5"/>
    <ride line="trad_line" busStop="805198994#0" to="-303412427#1"/>
    <walk edges="-303412427#1" speed="1.5"/>
  </person>
  <person id="person_455" depart="55" departLane="random" departSpeed="1.00" color="0,1,0">
    <walk from="-924607338" busStop="-924607338" speed="1.5"/>
    <ride line="trad_line" busStop="-924607338" to="-303412427#17"/>
    <walk edges="-303412427#17" speed="1.5"/>
  </person>
  <person id="person_250" depart="56" departLane="random" departSpeed="1.00" color="0,1,0">
    <walk from="29377703#4" busStop="29377703#4" speed="1.5"/>
    <ride line="trad_line" busStop="29377703#4" to="310627474#7"/>
    <walk edges="310627474#7" speed="1.5"/>
  </person>
  <person id="person_785" depart="56" departLane="random" departSpeed="1.00" color="1,0,1">
    <walk from="-4588647#3" busStop="-4588647#3" speed="1.5"/>
    <stop busStop="-4588647#3" duration="288"/>
  </person>
  <person id="person_316" depart="57" departLane="random" departSpeed="1.00" color="0,1,0">