<?xml version="1.0" ?>
<routes>
  <person id="person_218" depart="0" departLane="random" departSpeed="1.00" color="1,0,0">
    <walk from="1074607188" busStop="1074607188" speed="1.5"/>
    <stop busStop="1074607188" duration="158"/>
    <walk from="1074607188" to="4332734#2" speed="1.5"/>
  </person>
  <person id="person_255" depart="0" departLane="random" departSpeed="1.00" color="1,0,0">
    <walk from="332624272" busStop="332624272" speed="1.5"/>
    <stop busStop="332624272" duration="51"/>
    <walk from="332624272" to="136822580#2" speed="1.5"/>
  </person>
  <person id="person_648" depart="0" departLane="random" departSpeed="1.00" color="1,0,0">
    <walk from="369686026" busStop="369686026" speed="1.5"/>
    <stop busStop="369686026" duration="302"/>
    <walk from="369686026" to="119883577#1" speed="1.5"/>
  </person>
  <person id="person_148" depart="1" departLane="random" departSpeed="1.00" color="1,0,0">
    <walk from="176435844#0" busStop="176435844#0" speed="1.5"/>
    <stop busStop="176435844#0" duration="105"/>
    <walk from="176435844#0" to="745183362" speed="1.5"/>
  </person>
  <person id="person_608" depart="1" departLane="random" departSpeed="1.00" color="1,0,0">
    <walk from="119883577#10" busStop="119883577#10" speed="1.5"/>
    <stop busStop="119883577#10" duration="460"/>
    <walk from="119883577#10" to="4478182" speed="1.5"/>
  </person>
  <person id="person_639" depart="1" departLane="random" departSpeed="1.00" color="0,1,0">
    <walk from="303412427#1" busStop="303412427#1" speed="1.5"/>
    <ride line="trad_line" busStop="303412427#1" to="54338767#1"/>
    <walk edges="54338767#1" speed="1.5"/>
  </person>
  <person id="person_863" depart="1" departLane="random" departSpeed="1.00" color="1,0,0">
    <walk from="924607337#0" busStop="924607337#0" speed="1.5"/>
    <stop busStop="924607337#0" duration="188"/>
    <walk from="924607337#0" to="107396681#4" speed="1.5"/>
  </person>
  <person id="person_128" depart="2" departLane="random" departSpeed="1.00" color="1,0,0">
    <walk from="-187486758#5" busStop="-187486758#5" speed="1.5"/>
    <stop busStop="-187486758#5" duration="314"/>
    <walk from="-187486758#5" to="-82694445#2" speed="1.5"/>
  </person>
  <person id="person_766" depart="2" departLane="random" departSpeed="1.00" color="1,0,0">
    <walk from="303412427#14" busStop="303412427#14" speed="1.5"/>
    <stop busStop="303412427#14" duration="247"/>
    <walk from="303412427#14" to="1176045777" speed="1.5"/>
  </person>
  <person id="person_219" depart="3" departLane="random" departSpeed="1.00" color="0,1,0">
    <walk from="119883577#5" busStop="119883577#5" speed="1.5"/>
    <ride line="trad_line" busStop="119883577#5" to="-303412427#16"/>
    <walk edges="-303412427#16" speed="1.5"/>
  </person>
  <person id="person_851" depart="3" departLane="random" departSpeed="1.00" color="0,1,0">
    <walk from="48630242#3" busStop="48630242#3" speed="1.5"/>
    <ride line="trad_line" busStop="48630242#3" to="-924607337#1"/>
    <walk edges="-924607337#1" speed="1.5"/>
  </person>
  <person id="person_878" depart="3" departLane="random" departSpeed="1.00" color="0,1,0">
    <walk from="310627474#3" busStop="310627474#3" speed="1.5"/>
    <ride line="trad_line" busStop="310627474#3" to="757990562"/>
    <walk edges="757990562" speed="1.5"/>
  </person>
  <person id="person_731" depart="4" departLane="random" departSpeed="1.00" color="1,0,0">
    <walk from="-48630242#1" busStop="-48630242#1" speed="1.5"/>
    <stop busStop="-48630242#1" duration="84"/>
    <walk from="-48630242#1" to="1076442002" speed="1.5"/>
  </person>
  <person id="person_153" depart="5" departLane="random" departSpeed="1.00" color="0,1,0">
    <walk from="940612553" busStop="940612553" speed="1.5"/>
    <ride line="trad_line" busStop="940612553" to="-924607337#1"/>
    <walk edges="-924607337#1" speed="1.5"/>
  </person>
  <person id="person_834" depart="5" departLane="random" departSpeed="1.00" color="1,0,0">
    <walk from="704746731#0" busStop="704746731#0" speed="1.5"/>
    <stop busStop="704746731#0" duration="251"/>
    <walk from="704746731#0" to="329609972#0" speed="1.5"/>
  </person>
  <person id="person_109" depart="6" departLane="random" departSpeed="1.00" color="1,0,0">
    <walk from="136822575" busStop="136822575" speed="1.5"/>
    <stop busStop="136822575" duration="313"/>
    <walk from="136822575" to="154644778#1" speed="1.5"/>
  </person>
  <person id="person_260" depart="6" departLane="random" departSpeed="1.00" color="1,0,0">
    <walk from="-694268909#0" busStop="-694268909#0" speed="1.5"/>
    <stop busStop="-694268909#0" duration="427"/>
    <walk from="-694268909#0" to="-303412427#12" speed="1.5"/>
  </person>
  <person id="person_418" depart="6" departLane="random" departSpeed="1.00" color="1,0,0">
    <walk from="4332734#3" busStop="4332734#3" speed="1.5"/>
    <stop busStop="4332734#3" duration="499"/>
    <walk from="4332734#3" to="575729108#2" speed="1.5"/>
  </person>
  <person id="person_797" depart="6" departLane="random" departSpeed="1.00" color="0,1,0">
    <walk from="176435844#4" busStop="176435844#4" speed="1.5"/>
    <ride line="trad_line" busStop="176435844#4" to="1112806233-AddedOnRampEdge"/>
    <walk edges="1112806233-AddedOnRampEdge" speed="1.5"/>
  </person>
  <person id="person_812" depart="6" departLane="random" departSpeed="1.00" color="0,1,0">
    <walk from="-615478344#0" busStop="-615478344#0" speed="1.5"/>
    <ride line="trad_line" busStop="-615478344#0" to="-303412427#18"/>
    <walk edges="-303412427#18" speed="1.5"/>
  </person>
  <person id="person_852" depart="6" departLane="random" departSpeed="1.00" color="1,0,0">
    <walk from="303412427#8" busStop="303412427#8" speed="1.5"/>
    <stop busStop="303412427#8" duration="269"/>
    <walk from="303412427#8" to="-4332734#1" speed="1.5"/>
  </person>
  <person id="person_762" depart="7" departLane="random" departSpeed="1.00" color="1,0,0">
    <walk from="136822582" busStop="136822582" speed="1.5"/>
    <stop busStop="136822582" duration="324"/>
    <walk from="136822582" to="-29377703#4" speed="1.5"/>
  </person>
  <person id="person_840" depart="10" departLane="random" departSpeed="1.00" color="0,1,0">
    <walk from="-303412427#8" busStop="-303412427#8" speed="1.5"/>
    <ride line="trad_line" busStop="-303412427#8" to="-303412427#6"/>
    <walk edges="-303412427#6" speed="1.5"/>
  </person>
  <person id="person_894" depart="10" departLane="random" departSpeed="1.00" color="1,0,0">
    <walk from="4588647#4" busStop="4588647#4" speed="1.5"/>
    <stop busStop="4588647#4" duration="220"/>
    <walk from="4588647#4" to="-303412427#3" speed="1.5"/>
  </person>
  <person id="person_18" depart="11" departLane="random" departSpeed="1.00" color="0,1,0">
    <walk from="924607338" busStop="924607338" speed="1.5"/>
    <ride line="trad_line" busStop="924607338" to="119883577#5"/>
    <walk edges="119883577#5" speed="1.5"/>
  </person>
  <person id="person_448" depart="11" departLane="random" departSpeed="1.00" color="1,0,0">
    <walk from="4258656#2" busStop="4258656#2" speed="1.5"/>
    <stop busStop="4258656#2" duration="250"/>
    <walk from="4258656#2" to="329609972#0" speed="1.5"/>
  </person>
  <person id="person_816" depart="11" departLane="random" departSpeed="1.00" color="1,0,1">
    <walk from="4478182" busStop="4478182" speed="1.5"/>
    <stop busStop="4478182" duration="326"/>
  </person>
  <person id="person_87" depart="13" departLane="random" departSpeed="1.00" color="1,0,1">
    <walk from="923261416" busStop="923261416" speed="1.5"/>
    <stop busStop="923261416" duration="488"/>
  </person>
  <person id="person_267" depart="13" departLane="random" departSpeed="1.00" color="1,0,1">
    <walk from="136822580#1" busStop="136822580#1" speed="1.5"/>
    <stop busStop="136822580#1" duration="60"/>
  </person>
  <person id="person_656" depart="13" departLane="random" departSpeed="1.00" color="1,0,1">
    <walk from="136822571#3" busStop="136822571#3" speed="1.5"/>
    <stop busStop="136822571#3" duration="251"/>
  </person>
  <person id="person_337" depart="14" departLane="random" departSpeed="1.00" color="0,1,0">
    <walk from="82694458#0" busStop="82694458#0" speed="1.5"/>
    <ride line="trad_line" busStop="82694458#0" to="685156794#1"/>
    <walk edges="685156794#1" speed="1.5"/>
  </person>
  <person id="person_229" depart="15" departLane="random" departSpeed="1.00" color="0,1,0">
    <walk from="694268909#1" busStop="694268909#1" speed="1.5"/>
    <ride line="trad_line" busStop="694268909#1" to="-4332734#1"/>
    <walk edges="-4332734#1" speed="1.5"/>
  </person>
  <person id="person_373" depart="15" departLane="random" departSpeed="1.00" color="0,1,0">
    <walk from="4588647#5" busStop="4588647#5" speed="1.5"/>
    <ride line="trad_line" busStop="4588647#5" to="-1176045778"/>
    <walk edges="-1176045778" speed="1.5"/>
  </person>
  <person id="person_56" depart="16" departLane="random" departSpeed="1.00" color="0,1,0">
    <walk from="16174062#4" busStop="16174062#4" speed="1.5"/>
    <ride line="trad_line" busStop="16174062#4" to="575729108#1"/>
    <walk edges="575729108#1" speed="1.5"/>
  </person>
  <person id="person_678" depart="16" departLane="random" departSpeed="1.00" color="0,1,0">
    <walk from="757990549" busStop="757990549" speed="1.5"/>
    <ride line="trad_line" busStop="757990549" to="5019952#1"/>
    <walk edges="5019952#1" speed="1.5"/>
  </person>
  <person id="person_740" depart="16" departLane="random" departSpeed="1.00" color="1,0,1">
    <walk from="29377703#2" busStop="29377703#2" speed="1.5"/>
    <stop busStop="29377703#2" duration="424"/>
  </person>
  <person id="person_443" depart="18" departLane="random" departSpeed="1.00" color="0,1,0">
    <walk from="303412427#6" busStop="303412427#6" speed="1.5"/>
    <ride line="trad_line" busStop="303412427#6" to="820063579#1"/>
    <walk edges="820063579#1" speed="1.5"/>
  </person>
  <person id="person_717" depart="18" departLane="random" departSpeed="1.00" color="0,1,0">
    <walk from="-303412427#17" busStop="-303412427#17" speed="1.5"/>
    <ride line="trad_line" busStop="-303412427#17" to="-29377703#1"/>
    <walk edges="-29377703#1" speed="1.5"/>
  </person>
  <person id="person_244" depart="19" departLane="random" departSpeed="1.00" color="1,0,1">
    <walk from="615478345" busStop="615478345" speed="1.5"/>
    <stop busStop="615478345" duration="554"/>
  </person>
  <person id="person_503" depart="19" departLane="random" departSpeed="1.00" color="1,0,1">
    <walk from="-303412427#1" busStop="-303412427#1" speed="1.5"/>
    <stop busStop="-303412427#1" duration="564"/>
  </person>
  <person id="person_499" depart="20" departLane="random" departSpeed="1.00" color="1,0,0">
    <walk from="54338767#1" busStop="54338767#1" speed="1.5"/>
    <stop busStop="54338767#1" duration="70"/>
    <walk from="54338767#1" to="136822587#0" speed="1.5"/>
  </person>
  <person id="person_266" depart="21" departLane="random" departSpeed="1.00" color="0,1,0">
    <walk from="54338767#0" busStop="54338767#0" speed="1.5"/>
    <ride line="trad_line" busStop="54338767#0" to="136822587#3"/>
    <walk edges="136822587#3" speed="1.5"/>
  </person>
  <person id="person_63" depart="22" departLane="random" departSpeed="1.00" color="1,0,0">
    <walk from="16174062#2" busStop="16174062#2" speed="1.5"/>
    <stop busStop="16174062#2" duration="367"/>
    <walk from="16174062#2" to="-303412427#12" speed="1.5"/>
  </person>
  <person id="person_646" depart="22" departLane="random" departSpeed="1.00" color="1,0,0">
    <walk from="706706674#0" busStop="706706674#0" speed="1.5"/>
    <stop busStop="706706674#0" duration="141"/>
    <walk from="706706674#0" to="-29377703#1" speed="1.5"/>
  </person>
  <person id="person_178" depart="23" departLane="random" departSpeed="1.00" color="1,0,1">
    <walk from="4332734#0" busStop="4332734#0" speed="1.5"/>
    <stop busStop="4332734#0" duration="448"/>
  </person>
  <person id="person_628" depart="23" departLane="random" departSpeed="1.00" color="1,0,0">
    <walk from="303412427#6" busStop="303412427#6" speed="1.5"/>
    <stop busStop="303412427#6" duration="61"/>
    <walk from="303412427#6" to="4258656#0" speed="1.5"/>
  </person>
  <person id="person_848" depart="23" departLane="random" departSpeed="1.00" color="1,0,0">
    <walk from="-924607337#3" busStop="-924607337#3" speed="1.5"/>
    <stop busStop="-924607337#3" duration="78"/>
    <walk from="-924607337#3" to="-303412427#10" speed="1.5"/>
  </person>
  <person id="person_5" depart="24" departLane="random" departSpeed="1.00" color="1,0,0">
    <walk from="161754855#0" busStop="161754855#0" speed="1.5"/>
    <stop busStop="161754855#0" duration="527"/>
    <walk from="161754855#0" to="-694268909#1" speed="1.5"/>
  </person>
  <person id="person_631" depart="24" departLane="random" departSpeed="1.00" color="0,1,0">
    <walk from="303412427#8" busStop="303412427#8" speed="1.5"/>
    <ride line="trad_line" busStop="303412427#8" to="16174062#4"/>
    <walk edges="16174062#4" speed="1.5"/>
  </person>
  <person id="person_326" depart="25" departLane="random" departSpeed="1.00" color="0,1,0">
    <walk from="-4332734#6" busStop="-4332734#6" speed="1.5"/>
    <ride line="trad_line" busStop="-4332734#6" to="1018627463"/>
    <walk edges="1018627463" speed="1.5"/>
  </person>
  <person id="person_336" depart="25" departLane="random" departSpeed="1.00" color="1,0,0">
    <walk from="303412427#8" busStop="303412427#8" speed="1.5"/>
    <stop busStop="303412427#8" duration="429"/>
    <walk from="303412427#8" to="107396681#4" speed="1.5"/>
  </person>
  <person id="person_769" depart="25" departLane="random" departSpeed="1.00" color="1,0,1">
    <walk from="1176045778" busStop="1176045778" speed="1.5"/>
    <stop busStop="1176045778" duration="218"/>
  </person>
  <person id="person_793" depart="25" departLane="random" departSpeed="1.00" color="0,1,0">
    <walk from="-615456193#1" busStop="-615456193#1" speed="1.5"/>
    <ride line="trad_line" busStop="-615456193#1" to="-303412427#12"/>
    <walk edges="-303412427#12" speed="1.5"/>
  </person>
  <person id="person_135" depart="26" departLane="random" departSpeed="1.00" color="0,1,0">
    <walk from="820063585" busStop="820063585" speed="1.5"/>
    <ride line="trad_line" busStop="820063585" to="1076442002"/>
    <walk edges="1076442002" speed="1.5"/>
  </person>
  <person id="person_159" depart="26" departLane="random" departSpeed="1.00" color="1,0,0">
    <walk from="303412427#13" busStop="303412427#13" speed="1.5"/>
    <stop busStop="303412427#13" duration="387"/>
    <walk from="303412427#13" to="-303412427#3" speed="1.5"/>
  </person>
  <person id="person_505" depart="27" departLane="random" departSpeed="1.00" color="1,0,0">
    <walk from="-29377703#4" busStop="-29377703#4" speed="1.5"/>
    <stop busStop="-29377703#4" duration="42"/>
    <walk from="-29377703#4" to="-29377703#1" speed="1.5"/>
  </person>
  <person id="person_77" depart="28" departLane="random" departSpeed="1.00" color="0,1,0">
    <walk from="-4332734#7" busStop="-4332734#7" speed="1.5"/>
    <ride line="trad_line" busStop="-4332734#7" to="-48630242#1"/>
    <walk edges="-48630242#1" speed="1.5"/>
  </person>
  <person id="person_541" depart="28" departLane="random" departSpeed="1.00" color="1,0,0">
    <walk from="757990562" busStop="757990562" speed="1.5"/>
    <stop busStop="757990562" duration="128"/>
    <walk from="757990562" to="-303412427#3" speed="1.5"/>
  </person>
  <person id="person_808" depart="28" departLane="random" departSpeed="1.00" color="1,0,0">
    <walk from="-303412427#6" busStop="-303412427#6" speed="1.5"/>
    <stop busStop="-303412427#6" duration="519"/>
    <walk from="-303412427#6" to="-303412427#2" speed="1.5"/>
  </person>
  <person id="person_401" depart="29" departLane="random" departSpeed="1.00" color="0,1,0">
    <walk from="-924607337#0" busStop="-924607337#0" speed="1.5"/>
    <ride line="trad_line" busStop="-924607337#0" to="-29377703#2"/>
    <walk edges="-29377703#2" speed="1.5"/>
  </person>
  <person id="person_658" depart="29" departLane="random" departSpeed="1.00" color="1,0,0">
    <walk from="119883577#4" busStop="119883577#4" speed="1.5"/>
    <stop busStop="119883577#4" duration="387"/>
    <walk from="119883577#4" to="805198994#1" speed="1.5"/>
  </person>
  <person id="person_738" depart="30" departLane="random" departSpeed="1.00" color="1,0,0">
    <walk from="-940627086" busStop="-940627086" speed="1.5"/>
    <stop busStop="-940627086" duration="185"/>
    <walk from="-940627086" to="161754855#0" speed="1.5"/>
  </person>
  <person id="person_259" depart="31" departLane="random" departSpeed="1.00" color="1,0,0">
    <walk from="-48630242#1" busStop="-48630242#1" speed="1.5"/>
    <stop busStop="-48630242#1" duration="499"/>
    <walk from="-48630242#1" to="820063585" speed="1.5"/>
  </person>
  <person id="person_85" depart="32" departLane="random" departSpeed="1.00" color="1,0,0">
    <walk from="-303412427#5" busStop="-303412427#5" speed="1.5"/>
    <stop busStop="-303412427#5" duration="48"/>
    <walk from="-303412427#5" to="-29377703#1" speed="1.5"/>
  </person>
  <person id="person_339" depart="32" departLane="random" departSpeed="1.00" color="1,0,0">
    <walk from="-29377703#2" busStop="-29377703#2" speed="1.5"/>
    <stop busStop="-29377703#2" duration="458"/>
    <walk from="-29377703#2" to="-29377703#1" speed="1.5"/>
  </person>
  <person id="person_620" depart="33" departLane="random" departSpeed="1.00" color="1,0,0">
    <walk from="-615478345" busStop="-615478345" speed="1.5"/>
    <stop busStop="-615478345" duration="181"/>
    <walk from="-615478345" to="-303412427#10" speed="1.5"/>
  </person>
  <person id="person_880" depart="33" departLane="random" departSpeed="1.00" color="1,0,0">
    <walk from="-924607338" busStop="-924607338" speed="1.5"/>
    <stop busStop="-924607338" duration="447"/>
    <walk from="-924607338" to="-303412427#12" speed="1.5"/>
  </person>
  <person id="person_627" depart="34" departLane="random" departSpeed="1.00" color="0,1,0">
    <walk from="615478345" busStop="615478345" speed="1.5"/>
    <ride line="trad_line" busStop="615478345" to="176435844#3"/>
    <walk edges="176435844#3" speed="1.5"/>
  </person>
  <person id="person_428" depart="35" departLane="random" departSpeed="1.00" color="0,1,0">
    <walk from="-303412427#6" busStop="-303412427#6" speed="1.5"/>
    <ride line="trad_line" busStop="-303412427#6" to="-29377703#2"/>
    <walk edges="-29377703#2" speed="1.5"/>
  </person>
  <person id="person_733" depart="35" departLane="random" departSpeed="1.00" color="0,1,0">
    <walk from="-924607338" busStop="-924607338" speed="1.5"/>
    <ride line="trad_line" busStop="-924607338" to="-29377703#2"/>
    <walk edges="-29377703#2" speed="1.5"/>
  </person>
  <person id="person_774" depart="35" departLane="random" departSpeed="1.00" color="1,0,0">
    <walk from="136822571#1" busStop="136822571#1" speed="1.5"/>
    <stop busStop="136822571#1" duration="72"/>
    <walk from="136822571#1" to="5019952#4" speed="1.5"/>
  </person>
  <person id="person_29" depart="37" departLane="random" departSpeed="1.00" color="0,1,0">
    <walk from="303412427#9" busStop="303412427#9" speed="1.5"/>
    <ride line="trad_line" busStop="303412427#9" to="820063582#1"/>
    <walk edges="820063582#1" speed="1.5"/>
  </person>
  <person id="person_165" depart="37" departLane="random" departSpeed="1.00" color="0,1,0">
    <walk from="-368461882#1" busStop="-368461882#1" speed="1.5"/>
    <ride line="trad_line" busStop="-368461882#1" to="-303412427#2"/>
    <walk edges="-303412427#2" speed="1.5"/>
  </person>
  <person id="person_529" depart="37" departLane="random" departSpeed="1.00" color="0,1,0">
    <walk from="107396681#4" busStop="107396681#4" speed="1.5"/>
    <ride line="trad_line" busStop="107396681#4" to="-82694445#2"/>
    <walk edges="-82694445#2" speed="1.5"/>
  </person>
  <person id="person_168" depart="40" departLane="random" departSpeed="1.00" color="0,1,0">
    <walk from="4478182" busStop="4478182" speed="1.5"/>
    <ride line="trad_line" busStop="4478182" to="-924607337#2"/>
    <walk edges="-924607337#2" speed="1.5"/>
  </person>
  <person id="person_403" depart="40" departLane="random" departSpeed="1.00" color="1,0,0">
    <walk from="704746731#2" busStop="704746731#2" speed="1.5"/>
    <stop busStop="704746731#2" duration="432"/>
    <walk from="704746731#2" to="805198994#1" speed="1.5"/>
  </person>
  <person id="person_655" depart="40" departLane="random" departSpeed="1.00" color="1,0,1">
    <walk from="615456193#0" busStop="615456193#0" speed="1.5"/>
    <stop busStop="615456193#0" duration="220"/>
  </person>
  <person id="person_414" depart="41" departLane="random" departSpeed="1.00" color="0,1,0">
    <walk from="303412427#7" busStop="303412427#7" speed="1.5"/>
    <ride line="trad_line" busStop="303412427#7" to="-82694445#1"/>
    <walk edges="-82694445#1" speed="1.5"/>
  </person>
  <person id="person_474" depart="42" departLane="random" departSpeed="1.00" color="0,1,0">
    <walk from="82694458#0" busStop="82694458#0" speed="1.5"/>
    <ride line="trad_line" busStop="82694458#0" to="20816626#1"/>
    <walk edges="20816626#1" speed="1.5"/>
  </person>
  <person id="person_592" depart="42" departLane="random" departSpeed="1.00" color="1,0,0">
    <walk from="4588647#4" busStop="4588647#4" speed="1.5"/>
    <stop busStop="4588647#4" duration="441"/>
    <walk from="4588647#4" to="-82694445#2" speed="1.5"/>
  </person>
  <person id="person_399" depart="43" departLane="random" departSpeed="1.00" color="0,1,0">
    <walk from="136822580#2" busStop="136822580#2" speed="1.5"/>
    <ride line="trad_line" busStop="136822580#2" to="4258656#4"/>
    <walk edges="4258656#4" speed="1.5"/>
  </person>
  <person id="person_145" depart="44" departLane="random" departSpeed="1.00" color="1,0,1">
    <walk from="161754855#0" busStop="161754855#0" speed="1.5"/>
    <stop busStop="161754855#0" duration="64"/>
  </person>
  <person id="person_394" depart="44" departLane="random" departSpeed="1.00" color="1,0,1">
    <walk from="924607338" busStop="924607338" speed="1.5"/>
    <stop busStop="924607338" duration="425"/>
  </person>
  <person id="person_487" depart="45" departLane="random" departSpeed="1.00" color="1,0,1">
    <walk from="-4588647#5" busStop="-4588647#5" speed="1.5"/>
    <stop busStop="-4588647#5" duration="138"/>
  </person>
  <person id="person_645" depart="45" departLane="random" departSpeed="1.00" color="1,0,0">
    <walk from="54338767#0" busStop="54338767#0" speed="1.5"/>
    <stop busStop="54338767#0" duration="541"/>
    <walk from="54338767#0" to="4478182" speed="1.5"/>
  </person>
  <person id="person_57" depart="46" departLane="random" departSpeed="1.00" color="1,0,0">
    <walk from="310627474#7" busStop="310627474#7" speed="1.5"/>
    <stop busStop="310627474#7" duration="451"/>
    <walk from="310627474#7" to="-303412427#14" speed="1.5"/>
  </person>
  <person id="person_60" depart="46" departLane="random" departSpeed="1.00" color="1,0,1">
    <walk from="1074607189#0" busStop="1074607189#0" speed="1.5"/>
    <stop busStop="1074607189#0" duration="525"/>
  </person>
  <person id="person_462" depart="47" departLane="random" departSpeed="1.00" color="1,0,0">
    <walk from="-368461882#1" busStop="-368461882#1" speed="1.5"/>
    <stop busStop="-368461882#1" duration="207"/>
    <walk from="-368461882#1" to="-303412427#13" speed="1.5"/>
  </person>
  <person id="person_589" depart="48" departLane="random" departSpeed="1.00" color="1,0,0">
    <walk from="-303412427#6" busStop="-303412427#6" speed="1.5"/>
    <stop busStop="-303412427#6" duration="378"/>
    <walk from="-303412427#6" to="-303412427#5" speed="1.5"/>
  </person>
  <person id="person_38" depart="50" departLane="random" departSpeed="1.00" color="1,0,0">
    <walk from="-82694445#1" busStop="-82694445#1" speed="1.5"/>
    <stop busStop="-82694445#1" duration="328"/>
    <walk from="-82694445#1" to="-303412427#1" speed="1.5"/>
  </person>
  <person id="person_563" depart="50" departLane="random" departSpeed="1.00" color="1,0,1">
    <walk from="107396681#4" busStop="107396681#4" speed="1.5"/>
    <stop busStop="107396681#4" duration="409"/>
  </person>
  <person id="person_96" depart="51" departLane="random" departSpeed="1.00" color="1,0,0">
    <walk from="-303412427#13" busStop="-303412427#13" speed="1.5"/>
    <stop busStop="-303412427#13" duration="312"/>
    <walk from="-303412427#13" to="-303412427#9" speed="1.5"/>
  </person>
  <person id="person_855" depart="51" departLane="random" departSpeed="1.00" color="1,0,0">
    <walk from="615478344#0" busStop="615478344#0" speed="1.5"/>
    <stop busStop="615478344#0" duration="153"/>
    <walk from="615478344#0" to="694268909#1" speed="1.5"/>
  </person>
  <person id="person_382" depart="52" departLane="random" departSpeed="1.00" color="0,1,0">
    <walk from="48630242#1" busStop="48630242#1" speed="1.5"/>
    <ride line="trad_line" busStop="48630242#1" to="-29377703#2"/>
    <walk edges="-29377703#2" speed="1.5"/>
  </person>
  <person id="person_410" depart="52" departLane="random" departSpeed="1.00" color="1,0,0">
    <walk from="940627086" busStop="940627086" speed="1.5"/>
    <stop busStop="940627086" duration="47"/>
    <walk from="940627086" to="-303412427#7" speed="1.5"/>
  </person>
  <person id="person_121" depart="53" departLane="random" departSpeed="1.00" color="1,0,1">
    <walk from="16174062#2" busStop="16174062#2" speed="1.5"/>
    <stop busStop="16174062#2" duration="593"/>
  </person>
  <person id="person_170" depart="54" departLane="random" departSpeed="1.00" color="1,0,0">
    <walk from="1074607188" busStop="1074607188" speed="1.5"/>
    <stop busStop="1074607188" duration="136"/>
    <walk from="1074607188" to="-303412427#13" speed="1.5"/>
  </person>
  <person id="person_623" depart="54" departLane="random" departSpeed="1.00" color="1,0,0">
    <walk from="29377703#4" busStop="29377703#4" speed="1.5"/>
    <stop busStop="29377703#4" duration="597"/>
    <walk from="29377703#4" to="-303412427#18" speed="1.5"/>
  </person>
  <person id="person_570" depart="55" departLane="random" departSpeed="1.00" color="0,1,0">
    <walk from="303412427#8" busStop="303412427#8" speed="1.5"/>
    <ride line="trad_line" busStop="303412427#8" to="136822571#2"/>
    <walk edges="136822571#2" speed="1.5"/>
  </person>
  <person id="person_647" depart="55" departLane="random" departSpeed="1.00" color="1,0,0">
    <walk from="820063579#1" busStop="820063579#1" speed="1.5"/>
    <stop busStop="820063579#1" duration="157"/>
    <walk from="820063579#1" to="745183364#1" speed="1.5"/>
  </person>
  <person id="person_839" depart="55" departLane="random" departSpeed="1.00" color="1,0,1">
    <walk from="-303412427#1" busStop="-303412427#1" speed="1.5"/>
    <stop busStop="-303412427#1" duration="229"/>
  </person>
  <person id="person_17" depart="56" departLane="random" departSpeed="1.00" color="1,0,1">
    <walk from="4332731" busStop="4332731" speed="1.5"/>
    <stop busStop="4332731" duration="292"/>
  </person>
  <person id="person_371" depart="56" departLane="random" departSpeed="1.00" color="0,1,0">
    <walk from="575729552#1" busStop="575729552#1" speed="1.5"/>
    <ride line="trad_line" busStop="575729552#1" to="4588647#3"/>
    <walk edges="4588647#3" speed="1.5"/>
  </person>
  <person id="person_323" depart="57" departLane="random" departSpeed="1.00" color="0,1,0">
    <walk from="303412427#5" busStop="303412427#5" speed="1.5"/>
    <ride line="trad_line" busStop="303412427#5" to="32981461"/>
    <walk edges="32981461" speed="1.5"/>
  </person>
  <person id="person_803" depart="57" departLane="random" departSpeed="1.00" color="1,0,1">
    <walk from="-48630242#2" busStop="-48630242#2" speed="1.5"/>
    <stop busStop="-48630242#2" duration="207"/>
  </person>
  <person id="person_815" depart="57" departLane="random" departSpeed="1.00" color="1,0,0">
    <walk from="4588647#5" busStop="4588647#5" speed="1.5"/>
    <stop busStop="4588647#5" duration="489"/>
    <walk from="4588647#5" to="729164041#0" speed="1.5"/>
  </person>
  <person id="person_125" depart="58" departLane="random" departSpeed="1.00" color="1,0,0">
    <walk from="-82694458#0" busStop="-82694458#0" speed="1.5"/>
    <stop busStop="-82694458#0" duration="518"/>
    <walk from="-82694458#0" to="-1176045777" speed="1.5"/>
  </person>
  <person id="person_133" depart="58" departLane="random" departSpeed="1.00" color="1,0,1">
    <walk from="-303412427#8" busStop="-303412427#8" speed="1.5"/>
    <stop busStop="-303412427#8" duration="35"/>
  </person>
  <person id="person_62" depart="59" departLane="random" departSpeed="1.00" color="1,0,0">
    <walk from="820063578#1" busStop="820063578#1" speed="1.5"/>
    <stop busStop="820063578#1" duration="526"/>
    <walk from="820063578#1" to="-924607337#3" speed="1.5"/>
  </person>
  <person id="person_86" depart="59" departLane="random" departSpeed="1.00" color="1,0,1">
    <walk from="1176045777" busStop="1176045777" speed="1.5"/>
    <stop busStop="1176045777" duration="426"/>
  </person>
  <person id="person_230" depart="60" departLane="random" departSpeed="1.00" color="1,0,1">
    <walk from="176435849" busStop="176435849" speed="1.5"/>
    <stop busStop="176435849" duration="98"/>
  </person>
  <person id="person_232" depart="60" departLane="random" departSpeed="1.00" color="1,0,0">
    <walk from="5019952#2" busStop="5019952#2" speed="1.5"/>
    <stop busStop="5019952#2" duration="68"/>
    <walk from="5019952#2" to="4258656#2" speed="1.5"/>
  </person>
  <person id="person_70" depart="61" departLane="random" departSpeed="1.00" color="0,1,0">
    <walk from="1112806233" busStop="1112806233" speed="1.5"/>
    <ride line="trad_line" busStop="1112806233" to="-82694458#0"/>