<?xml version="1.0" ?>
<routes>
  <person id="person_66" depart="1" departLane="random" departSpeed="1.00">
    <walk from="924607337#1" busStop="924607337#1" speed="1.5" color="0,1,0"/>
    <stop busStop="924607337#1" duration="184" color="0,0,1"/>
  </person>
  <person id="person_36" depart="3" departLane="random" departSpeed="1.00">
    <walk from="-615478344#1" busStop="-615478344#1" speed="1.5" color="0,1,0"/>
    <ride line="trad_line" busStop="-615478344#1" to="-303412427#3" color="0,0,1"/>
    <walk edges="-303412427#3" speed="1.5" color="0,1,0"/>
  </person>
  <person id="person_68" depart="9" departLane="random" departSpeed="1.00">
    <walk from="136822580#2" busStop="136822580#2" speed="1.5" color="0,1,0"/>
    <stop busStop="136822580#2" duration="65" color="0,0,1"/>
    <walk from="136822580#2" to="805198994#1" speed="1.5" color="0,1,0"/>
  </person>
  <person id="person_24" depart="10" departLane="random" departSpeed="1.00">
    <walk from="615478345" busStop="615478345" speed="1.5" color="0,1,0"/>
    <ride line="trad_line" busStop="615478345" to="136822575" color="0,0,1"/>
    <walk edges="136822575" speed="1.5" color="0,1,0"/>
  </person>
  <person id="person_25" depart="14" departLane="random" departSpeed="1.00">
    <walk from="-303412427#14" busStop="-303412427#14" speed="1.5" color="0,1,0"/>
    <stop busStop="-303412427#14" duration="216" color="0,0,1"/>
  </person>
  <person id="person_37" depart="25" departLane="random" departSpeed="1.00">
    <walk from="368461882#1" busStop="368461882#1" speed="1.5" color="0,1,0"/>
    <stop busStop="368461882#1" duration="246" color="0,0,1"/>
  </person>
  <person id="person_76" depart="26" departLane="random" departSpeed="1.00">
    <walk from="161754854#1" busStop="161754854#1" speed="1.5" color="0,1,0"/>
    <ride line="trad_line" busStop="161754854#1" to="176435844#7" color="0,0,1"/>
    <walk edges="176435844#7" speed="1.5" color="0,1,0"/>
  </person>
  <person id="person_61" depart="28" departLane="random" departSpeed="1.00">
    <walk from="176435844#4" busStop="176435844#4" speed="1.5" color="0,1,0"/>
    <ride line="trad_line" busStop="176435844#4" to="-924607337#4" color="0,0,1"/>
    <walk edges="-924607337#4" speed="1.5" color="0,1,0"/>
  </person>
  <person id="person_90" depart="31" departLane="random" departSpeed="1.00">
    <walk from="805198994#1" busStop="805198994#1" speed="1.5" color="0,1,0"/>
    <stop busStop="805198994#1" duration="445" color="0,0,1"/>
  </person>
  <person id="person_1" depart="34" departLane="random" departSpeed="1.00">
    <walk from="176435844#3" busStop="176435844#3" speed="1.5" color="0,1,0"/>
    <stop busStop="176435844#3" duration="34" color="0,0,1"/>
    <walk from="176435844#3" to="48630242#2" speed="1.5" color="0,1,0"/>
  </person>
  <person id="person_29" depart="34" departLane="random" departSpeed="1.00">
    <walk from="-368461882#0" busStop="-368461882#0" speed="1.5" color="0,1,0"/>
    <ride line="trad_line" busStop="-368461882#0" to="-303412427#9" color="0,0,1"/>
    <walk edges="-303412427#9" speed="1.5" color="0,1,0"/>
  </person>
  <person id="person_64" depart="36" departLane="random" departSpeed="1.00">
    <walk from="-4332734#2" busStop="-4332734#2" speed="1.5" color="0,1,0"/>
    <stop busStop="-4332734#2" duration="585" color="0,0,1"/>
  </person>
  <person id="person_59" depart="41" departLane="random" departSpeed="1.00">
    <walk from="-575729108#2" busStop="-575729108#2" speed="1.5" color="0,1,0"/>
    <stop busStop="-575729108#2" duration="432" color="0,0,1"/>
  </person>
  <person id="person_62" depart="41" departLane="random" departSpeed="1.00">
    <walk from="1072039865#1" busStop="1072039865#1" speed="1.5" color="0,1,0"/>
    <stop busStop="1072039865#1" duration="216" color="0,0,1"/>
  </person>
  <person id="person_89" depart="44" departLane="random" departSpeed="1.00">
    <walk from="161754855#1" busStop="161754855#1" speed="1.5" color="0,1,0"/>
    <ride line="trad_line" busStop="161754855#1" to="32981461" color="0,0,1"/>
    <walk edges="32981461" speed="1.5" color="0,1,0"/>
  </person>
  <person id="person_22" depart="47" departLane="random" departSpeed="1.00">
    <walk from="119883577#6" busStop="119883577#6" speed="1.5" color="0,1,0"/>
    <stop busStop="119883577#6" duration="390" color="0,0,1"/>
  </person>
  <person id="person_21" depart="50" departLane="random" departSpeed="1.00">
    <walk from="-4588647#5" busStop="-4588647#5" speed="1.5" color="0,1,0"/>
    <ride line="trad_line" busStop="-4588647#5" to="161754854#1" color="0,0,1"/>
    <walk edges="161754854#1" speed="1.5" color="0,1,0"/>
  </person>
  <person id="person_8" depart="65" departLane="random" departSpeed="1.00">
    <walk from="4588647#0" busStop="4588647#0" speed="1.5" color="0,1,0"/>
    <stop busStop="4588647#0" duration="509" color="0,0,1"/>
  </person>
  <person id="person_57" depart="71" departLane="random" departSpeed="1.00">
    <walk from="1018627463" busStop="1018627463" speed="1.5" color="0,1,0"/>
    <stop busStop="1018627463" duration="244" color="0,0,1"/>
    <walk from="1018627463" to="310627474#7" speed="1.5" color="0,1,0"/>
  </person>
  <person id="person_43" depart="75" departLane="random" departSpeed="1.00">
    <walk from="4086429" busStop="4086429" speed="1.5" color="0,1,0"/>
    <ride line="trad_line" busStop="4086429" to="-303412427#13" color="0,0,1"/>
    <walk edges="-303412427#13" speed="1.5" color="0,1,0"/>
  </person>
  <person id="person_97" depart="75" departLane="random" departSpeed="1.00">
    <walk from="-303412427#6" busStop="-303412427#6" speed="1.5" color="0,1,0"/>
    <ride line="trad_line" busStop="-303412427#6" to="-29377703#2" color="0,0,1"/>
    <walk edges="-29377703#2" speed="1.5" color="0,1,0"/>
  </person>
  <person id="person_53" depart="85" departLane="random" departSpeed="1.00">
    <walk from="303412427#2" busStop="303412427#2" speed="1.5" color="0,1,0"/>
    <stop busStop="303412427#2" duration="506" color="0,0,1"/>
    <walk from="303412427#2" to="615456193#2" speed="1.5" color="0,1,0"/>
  </person>
  <person id="person_86" depart="94" departLane="random" departSpeed="1.00">
    <walk from="685156794#1" busStop="685156794#1" speed="1.5" color="0,1,0"/>
    <ride line="trad_line" busStop="685156794#1" to="48630242#3" color="0,0,1"/>
    <walk edges="48630242#3" speed="1.5" color="0,1,0"/>
  </person>
  <person id="person_99" depart="95" departLane="random" departSpeed="1.00">
    <walk from="295073752#0" busStop="295073752#0" speed="1.5" color="0,1,0"/>
    <stop busStop="295073752#0" duration="307" color="0,0,1"/>
  </person>
  <person id="person_12" depart="98" departLane="random" departSpeed="1.00">
    <walk from="-1176045778" busStop="-1176045778" speed="1.5" color="0,1,0"/>
    <stop busStop="-1176045778" duration="309" color="0,0,1"/>
    <walk from="-1176045778" to="-303412427#8" speed="1.5" color="0,1,0"/>
  </person>
  <person id="person_73" depart="98" departLane="random" departSpeed="1.00">
    <walk from="-924607337#0" busStop="-924607337#0" speed="1.5" color="0,1,0"/>
    <stop busStop="-924607337#0" duration="405" color="0,0,1"/>
  </person>
  <person id="person_100" depart="98" departLane="random" departSpeed="1.00">
    <walk from="4332734#1" busStop="4332734#1" speed="1.5" color="0,1,0"/>
    <ride line="trad_line" busStop="4332734#1" to="-82694458#0" color="0,0,1"/>
    <walk edges="-82694458#0" speed="1.5" color="0,1,0"/>
  </person>
  <person id="person_46" depart="107" departLane="random" departSpeed="1.00">
    <walk from="1148489399#1" busStop="1148489399#1" speed="1.5" color="0,1,0"/>
    <stop busStop="1148489399#1" duration="538" color="0,0,1"/>
    <walk from="1148489399#1" to="820063582#1" speed="1.5" color="0,1,0"/>
  </person>
  <person id="person_39" depart="115" departLane="random" departSpeed="1.00">
    <walk from="4478182" busStop="4478182" speed="1.5" color="0,1,0"/>
    <stop busStop="4478182" duration="353" color="0,0,1"/>
  </person>
  <person id="person_13" depart="120" departLane="random" departSpeed="1.00">
    <walk from="310627474#1" busStop="310627474#1" speed="1.5" color="0,1,0"/>
    <stop busStop="310627474#1" duration="314" color="0,0,1"/>
    <walk from="310627474#1" to="805198994#1" speed="1.5" color="0,1,0"/>
  </person>
  <person id="person_92" depart="120" departLane="random" departSpeed="1.00">
    <walk from="-924607337#0" busStop="-924607337#0" speed="1.5" color="0,1,0"/>
    <ride line="trad_line" busStop="-924607337#0" to="-29377703#2" color="0,0,1"/>
    <walk edges="-29377703#2" speed="1.5" color="0,1,0"/>
  </person>
  <person id="person_11" depart="124" departLane="random" departSpeed="1.00">
    <walk from="-615456193#1" busStop="-615456193#1" speed="1.5" color="0,1,0"/>
    <ride line="trad_line" busStop="-615456193#1" to="154644778#0" color="0,0,1"/>
    <walk edges="154644778#0" speed="1.5" color="0,1,0"/>
  </person>
  <person id="person_38" depart="128" departLane="random" departSpeed="1.00">
    <walk from="4332734#3" busStop="4332734#3" speed="1.5" color="0,1,0"/>
    <stop busStop="4332734#3" duration="373" color="0,0,1"/>
    <walk from="4332734#3" to="-303412427#7" speed="1.5" color="0,1,0"/>
  </person>
  <person id="person_33" depart="130" departLane="random" departSpeed="1.00">
    <walk from="119883577#5" busStop="119883577#5" speed="1.5" color="0,1,0"/>
    <ride line="trad_line" busStop="119883577#5" to="136822575" color="0,0,1"/>
    <walk edges="136822575" speed="1.5" color="0,1,0"/>
  </person>
  <person id="person_15" depart="133" departLane="random" departSpeed="1.00">
    <walk from="-4332734#4" busStop="-4332734#4" speed="1.5" color="0,1,0"/>
    <ride line="trad_line" busStop="-4332734#4" to="-924607338" color="0,0,1"/>
    <walk edges="-924607338" speed="1.5" color="0,1,0"/>
  </person>
  <person id="person_3" depart="135" departLane="random" departSpeed="1.00">
    <walk from="119883577#8" busStop="119883577#8" speed="1.5" color="0,1,0"/>
    <ride line="trad_line" busStop="119883577#8" to="-615456193#1" color="0,0,1"/>
    <walk edges="-615456193#1" speed="1.5" color="0,1,0"/>
  </person>
  <person id="person_47" depart="145" departLane="random" departSpeed="1.00">
    <walk from="757990549" busStop="757990549" speed="1.5" color="0,1,0"/>
    <ride line="trad_line" busStop="757990549" to="-924607337#0" color="0,0,1"/>
    <walk edges="-924607337#0" speed="1.5" color="0,1,0"/>
  </person>
  <person id="person_28" depart="154" departLane="random" departSpeed="1.00">
    <walk from="1018627463" busStop="1018627463" speed="1.5" color="0,1,0"/>
    <ride line="trad_line" busStop="1018627463" to="1156612124" color="0,0,1"/>
    <walk edges="1156612124" speed="1.5" color="0,1,0"/>
  </person>
  <person id="person_9" depart="160" departLane="random" departSpeed="1.00">
    <walk from="924607337#1" busStop="924607337#1" speed="1.5" color="0,1,0"/>
    <stop busStop="924607337#1" duration="295" color="0,0,1"/>
  </person>
  <person id="person_69" depart="172" departLane="random" departSpeed="1.00">
    <walk from="924607337#2" busStop="924607337#2" speed="1.5" color="0,1,0"/>
    <stop busStop="924607337#2" duration="230" color="0,0,1"/>
  </person>
  <person id="person_2" depart="180" departLane="random" departSpeed="1.00">
    <walk from="4478182" busStop="4478182" speed="1.5" color="0,1,0"/>
    <ride line="trad_line" busStop="4478182" to="-82694445#1" color="0,0,1"/>
    <walk edges="-82694445#1" speed="1.5" color="0,1,0"/>
  </person>
  <person id="person_7" depart="180" departLane="random" departSpeed="1.00">
    <walk from="4588647#5" busStop="4588647#5" speed="1.5" color="0,1,0"/>
    <stop busStop="4588647#5" duration="587" color="0,0,1"/>
    <walk from="4588647#5" to="48630242#2" speed="1.5" color="0,1,0"/>
  </person>
  <person id="person_96" depart="180" departLane="random" departSpeed="1.00">
    <walk from="575729108#2" busStop="575729108#2" speed="1.5" color="0,1,0"/>
    <stop busStop="575729108#2" duration="460" color="0,0,1"/>
    <walk from="575729108#2" to="-615478344#0" speed="1.5" color="0,1,0"/>
  </person>
  <person id="person_44" depart="181" departLane="random" departSpeed="1.00">
    <walk from="303412427#13" busStop="303412427#13" speed="1.5" color="0,1,0"/>
    <stop busStop="303412427#13" duration="480" color="0,0,1"/>
  </person>
  <person id="person_78" depart="191" departLane="random" departSpeed="1.00">
    <walk from="-82694445#2" busStop="-82694445#2" speed="1.5" color="0,1,0"/>
    <ride line="trad_line" busStop="-82694445#2" to="-615456193#1" color="0,0,1"/>
    <walk edges="-615456193#1" speed="1.5" color="0,1,0"/>
  </person>
  <person id="person_80" depart="191" departLane="random" departSpeed="1.00">
    <walk from="-1176045777" busStop="-1176045777" speed="1.5" color="0,1,0"/>
    <stop busStop="-1176045777" duration="177" color="0,0,1"/>
    <walk from="-1176045777" to="-924607338" speed="1.5" color="0,1,0"/>
  </person>
  <person id="person_40" depart="197" departLane="random" departSpeed="1.00">
    <walk from="-303412427#8" busStop="-303412427#8" speed="1.5" color="0,1,0"/>
    <stop busStop="-303412427#8" duration="566" color="0,0,1"/>
  </person>
  <person id="person_18" depart="206" departLane="random" departSpeed="1.00">
    <walk from="704746733#0" busStop="704746733#0" speed="1.5" color="0,1,0"/>
    <ride line="trad_line" busStop="704746733#0" to="1112806233-AddedOnRampEdge" color="0,0,1"/>
    <walk edges="1112806233-AddedOnRampEdge" speed="1.5" color="0,1,0"/>
  </person>
  <person id="person_51" depart="207" departLane="random" departSpeed="1.00">
    <walk from="-29377703#4" busStop="-29377703#4" speed="1.5" color="0,1,0"/>
    <stop busStop="-29377703#4" duration="57" color="0,0,1"/>
    <walk from="-29377703#4" to="-29377703#2" speed="1.5" color="0,1,0"/>
  </person>
  <person id="person_54" depart="221" departLane="random" departSpeed="1.00">
    <walk from="-4588647#4" busStop="-4588647#4" speed="1.5" color="0,1,0"/>
    <ride line="trad_line" busStop="-4588647#4" to="-303412427#10" color="0,0,1"/>
    <walk edges="-303412427#10" speed="1.5" color="0,1,0"/>
  </person>
  <person id="person_14" depart="223" departLane="random" departSpeed="1.00">
    <walk from="685156794#1" busStop="685156794#1" speed="1.5" color="0,1,0"/>
    <ride line="trad_line" busStop="685156794#1" to="704746731#2" color="0,0,1"/>
    <walk edges="704746731#2" speed="1.5" color="0,1,0"/>
  </person>
  <person id="person_4" depart="228" departLane="random" departSpeed="1.00">
    <walk from="-924607338" busStop="-924607338" speed="1.5" color="0,1,0"/>
    <ride line="trad_line" busStop="-924607338" to="-303412427#7" color="0,0,1"/>
    <walk edges="-303412427#7" speed="1.5" color="0,1,0"/>
  </person>
  <person id="person_87" depart="228" departLane="random" departSpeed="1.00">
    <walk from="4637649" busStop="4637649" speed="1.5" color="0,1,0"/>
    <stop busStop="4637649" duration="158" color="0,0,1"/>
    <walk from="4637649" to="136822571#2" speed="1.5" color="0,1,0"/>
  </person>
  <person id="person_74" depart="238" departLane="random" departSpeed="1.00">
    <walk from="704746731#2" busStop="704746731#2" speed="1.5" color="0,1,0"/>
    <stop busStop="704746731#2" duration="124" color="0,0,1"/>
  </person>
  <person id="person_93" depart="239" departLane="random" departSpeed="1.00">
    <walk from="369686026" busStop="369686026" speed="1.5" color="0,1,0"/>
    <stop busStop="369686026" duration="200" color="0,0,1"/>
  </person>
  <person id="person_17" depart="249" departLane="random" departSpeed="1.00">
    <walk from="-4332734#4" busStop="-4332734#4" speed="1.5" color="0,1,0"/>
    <stop busStop="-4332734#4" duration="586" color="0,0,1"/>
    <walk from="-4332734#4" to="-303412427#15" speed="1.5" color="0,1,0"/>
  </person>
  <person id="person_48" depart="267" departLane="random" departSpeed="1.00">
    <walk from="136822571#1" busStop="136822571#1" speed="1.5" color="0,1,0"/>
    <ride line="trad_line" busStop="136822571#1" to="-303412427#5" color="0,0,1"/>
    <walk edges="-303412427#5" speed="1.5" color="0,1,0"/>
  </person>
  <person id="person_55" depart="271" departLane="random" departSpeed="1.00">
    <walk from="-303412427#3" busStop="-303412427#3" speed="1.5" color="0,1,0"/>
    <ride line="trad_line" busStop="-303412427#3" to="-303412427#2" color="0,0,1"/>
    <walk edges="-303412427#2" speed="1.5" color="0,1,0"/>
  </person>
  <person id="person_31" depart="278" departLane="random" departSpeed="1.00">
    <walk from="-48630242#2" busStop="-48630242#2" speed="1.5" color="0,1,0"/>
    <ride line="trad_line" busStop="-48630242#2" to="820063587#1" color="0,0,1"/>
    <walk edges="820063587#1" speed="1.5" color="0,1,0"/>
  </person>
  <person id="person_95" depart="279" departLane="random" departSpeed="1.00">
    <walk from="575729555" busStop="575729555" speed="1.5" color="0,1,0"/>
    <stop busStop="575729555" duration="495" color="0,0,1"/>
    <walk from="575729555" to="-82694458#0" speed="1.5" color="0,1,0"/>
  </person>
  <person id="person_16" depart="283" departLane="random" departSpeed="1.00">
    <walk from="924607337#4" busStop="924607337#4" speed="1.5" color="0,1,0"/>
    <stop busStop="924607337#4" duration="139" color="0,0,1"/>
  </person>
  <person id="person_82" depart="285" departLane="random" departSpeed="1.00">
    <walk from="1112806233-AddedOnRampEdge" busStop="1112806233-AddedOnRampEdge" speed="1.5" color="0,1,0"/>
    <stop busStop="1112806233-AddedOnRampEdge" duration="134" color="0,0,1"/>
    <walk from="1112806233-AddedOnRampEdge" to="805198994#0" speed="1.5" color="0,1,0"/>
  </person>
  <person id="person_56" depart="287" departLane="random" departSpeed="1.00">
    <walk from="303412427#14" busStop="303412427#14" speed="1.5" color="0,1,0"/>
    <ride line="trad_line" busStop="303412427#14" to="-303412427#3" color="0,0,1"/>
    <walk edges="-303412427#3" speed="1.5" color="0,1,0"/>
  </person>
  <person id="person_52" depart="294" departLane="random" departSpeed="1.00">
    <walk from="303412427#10" busStop="303412427#10" speed="1.5" color="0,1,0"/>
    <stop busStop="303412427#10" duration="73" color="0,0,1"/>
  </person>
  <person id="person_23" depart="300" departLane="random" departSpeed="1.00">
    <walk from="820063578#1" busStop="820063578#1" speed="1.5" color="0,1,0"/>
    <ride line="trad_line" busStop="820063578#1" to="745183364#0" color="0,0,1"/>
    <walk edges="745183364#0" speed="1.5" color="0,1,0"/>
  </person>
  <person id="person_19" depart="311" departLane="random" departSpeed="1.00">
    <walk from="1176045777" busStop="1176045777" speed="1.5" color="0,1,0"/>
    <stop busStop="1176045777" duration="445" color="0,0,1"/>
    <walk from="1176045777" to="1174874706" speed="1.5" color="0,1,0"/>
  </person>
  <person id="person_32" depart="313" departLane="random" departSpeed="1.00">
    <walk from="136822571#2" busStop="136822571#2" speed="1.5" color="0,1,0"/>
    <stop busStop="136822571#2" duration="394" color="0,0,1"/>
  </person>
  <person id="person_98" depart="320" departLane="random" departSpeed="1.00">
    <walk from="303412427#10" busStop="303412427#10" speed="1.5" color="0,1,0"/>
    <ride line="trad_line" busStop="303412427#10" to="161754855#0" color="0,0,1"/>
    <walk edges="161754855#0" speed="1.5" color="0,1,0"/>
  </person>
  <person id="person_71" depart="328" departLane="random" departSpeed="1.00">
    <walk from="704746731#3" busStop="704746731#3" speed="1.5" color="0,1,0"/>
    <stop busStop="704746731#3" duration="318" color="0,0,1"/>
    <walk from="704746731#3" to="-82694445#1" speed="1.5" color="0,1,0"/>
  </person>
  <person id="person_75" depart="333" departLane="random" departSpeed="1.00">
    <walk from="-924607337#3" busStop="-924607337#3" speed="1.5" color="0,1,0"/>
    <ride line="trad_line" busStop="-924607337#3" to="-303412427#16" color="0,0,1"/>
    <walk edges="-303412427#16" speed="1.5" color="0,1,0"/>
  </person>
  <person id="person_42" depart="351" departLane="random" departSpeed="1.00">
    <walk from="1074607188" busStop="1074607188" speed="1.5" color="0,1,0"/>
    <stop busStop="1074607188" duration="198" color="0,0,1"/>
  </person>
  <person id="person_10" depart="367" departLane="random" departSpeed="1.00">
    <walk from="1074607188" busStop="1074607188" speed="1.5" color="0,1,0"/>
    <stop busStop="1074607188" duration="335" color="0,0,1"/>
  </person>
  <person id="person_6" depart="396" departLane="random" departSpeed="1.00">
    <walk from="154644778#0" busStop="154644778#0" speed="1.5" color="0,1,0"/>
    <stop busStop="154644778#0" duration="202" color="0,0,1"/>
  </person>
  <person id="person_20" depart="399" departLane="random" departSpeed="1.00">
    <walk from="368461882#1" busStop="368461882#1" speed="1.5" color="0,1,0"/>
    <stop busStop="368461882#1" duration="105" color="0,0,1"/>
  </person>
  <person id="person_65" depart="403" departLane="random" departSpeed="1.00">
    <walk from="368461882#1" busStop="368461882#1" speed="1.5" color="0,1,0"/>
    <stop busStop="368461882#1" duration="349" color="0,0,1"/>
  </person>
  <person id="person_26" depart="405" departLane="random" departSpeed="1.00">
    <walk from="-4332734#6" busStop="-4332734#6" speed="1.5" color="0,1,0"/>
    <stop busStop="-4332734#6" duration="359" color="0,0,1"/>
    <walk from="-4332734#6" to="575729555" speed="1.5" color="0,1,0"/>
  </person>
  <person id="person_70" depart="408" departLane="random" departSpeed="1.00">
    <walk from="940612553" busStop="940612553" speed="1.5" color="0,1,0"/>
    <ride line="trad_line" busStop="940612553" to="-924607338" color="0,0,1"/>
    <walk edges="-924607338" speed="1.5" color="0,1,0"/>
  </person>
  <person id="person_58" depart="413" departLane="random" departSpeed="1.00">
    <walk from="121188638" busStop="121188638" speed="1.5" color="0,1,0"/>
    <stop busStop="121188638" duration="362" color="0,0,1"/>
  </person>
  <person id="person_85" depart="415" departLane="random" departSpeed="1.00">
    <walk from="757990561" busStop="757990561" speed="1.5" color="0,1,0"/>
    <stop busStop="757990561" duration="493" color="0,0,1"/>
    <walk from="757990561" to="-303412427#15" speed="1.5" color="0,1,0"/>
  </person>
  <person id="person_27" depart="418" departLane="random" departSpeed="1.00">
    <walk from="757990562" busStop="757990562" speed="1.5" color="0,1,0"/>
    <stop busStop="757990562" duration="174" color="0,0,1"/>
    <walk from="757990562" to="-82694458#0" speed="1.5" color="0,1,0"/>
  </person>
  <person id="person_5" depart="419" departLane="random" departSpeed="1.00">
    <walk from="16174062#1" busStop="16174062#1" speed="1.5" color="0,1,0"/>
    <stop busStop="16174062#1" duration="95" color="0,0,1"/>
    <walk from="16174062#1" to="4258656#1" speed="1.5" color="0,1,0"/>
  </person>
  <person id="person_45" depart="423" departLane="random" departSpeed="1.00">
    <walk from="4258656#0" busStop="4258656#0" speed="1.5" color="0,1,0"/>
    <stop busStop="4258656#0" duration="90" color="0,0,1"/>
  </person>
  <person id="person_63" depart="423" departLane="random" departSpeed="1.00">
    <walk from="694268909#1" busStop="694268909#1" speed="1.5" color="0,1,0"/>
    <stop busStop="694268909#1" duration="140" color="0,0,1"/>
  </person>
  <person id="person_91" depart="426" departLane="random" departSpeed="1.00">
    <walk from="706706674#0" busStop="706706674#0" speed="1.5" color="0,1,0"/>
    <ride line="trad_line" busStop="706706674#0" to="119883577#1" color="0,0,1"/>
    <walk edges="119883577#1" speed="1.5" color="0,1,0"/>
  </person>
  <person id="person_84" depart="431" departLane="random" departSpeed="1.00">
    <walk from="119883577#4" busStop="119883577#4" speed="1.5" color="0,1,0"/>
    <stop busStop="119883577#4" duration="187" color="0,0,1"/>
  </person>
  <person id="person_77" depart="436" departLane="random" departSpeed="1.00">
    <walk from="757990561" busStop="757990561" speed="1.5" color="0,1,0"/>
    <stop busStop="757990561" duration="88" color="0,0,1"/>
    <walk from="757990561" to="-368461882#0" speed="1.5" color="0,1,0"/>
  </person>
  <person id="person_50" depart="442" departLane="random" departSpeed="1.00">
    <walk from="-694268909#0" busStop="-694268909#0" speed="1.5" color="0,1,0"/>
    <ride line="trad_line" busStop="-694268909#0" to="-303412427#7" color="0,0,1"/>
    <walk edges="-303412427#7" speed="1.5" color="0,1,0"/>
  </person>
  <person id="person_72" depart="445" departLane="random" departSpeed="1.00">
    <walk from="4588647#3" busStop="4588647#3" speed="1.5" color="0,1,0"/>
    <ride line="trad_line" busStop="4588647#3" to="154644778#1" color="0,0,1"/>
    <walk edges="154644778#1" speed="1.5" color="0,1,0"/>
  </person>
  <person id="person_79" depart="451" departLane="random" departSpeed="1.00">
    <walk from="575729552#1" busStop="575729552#1" speed="1.5" color="0,1,0"/>
    <stop busStop="575729552#1" duration="366" color="0,0,1"/>
  </person>
  <person id="person_83" depart="456" departLane="random" departSpeed="1.00">
    <walk from="923261416" busStop="923261416" speed="1.5" color="0,1,0"/>
    <stop busStop="923261416" duration="128" color="0,0,1"/>
    <walk from="923261416" to="-615478344#0" speed="1.5" color="0,1,0"/>
  </person>
  <person id="person_94" depart="458" departLane="random" departSpeed="1.00">
    <walk from="-924607337#1" busStop="-924607337#1" speed="1.5" color="0,1,0"/>
    <stop busStop="-924607337#1" duration="314" color="0,0,1"/>
  </person>
  <person id="person_30" depart="462" departLane="random" departSpeed="1.00">
    <walk from="20816626#1" busStop="20816626#1" speed="1.5" color="0,1,0"/>
    <stop busStop="20816626#1" duration="510" color="0,0,1"/>
    <walk from="20816626#1" to="136822587#0" speed="1.5" color="0,1,0"/>
  </person>
  <person id="person_60" depart="471" departLane="random" departSpeed="1.00">
    <walk from="119883577#1" busStop="119883577#1" speed="1.5" color="0,1,0"/>
    <stop busStop="119883577#1" duration="274" color="0,0,1"/>
  </person>
  <person id="person_35" depart="473" departLane="random" departSpeed="1.00">
    <walk from="-575729108#1" busStop="-575729108#1" speed="1.5" color="0,1,0"/>
    <stop busStop="-575729108#1" duration="342" color="0,0,1"/>
  </person>
  <person id="person_67" depart="474" departLane="random" departSpeed="1.00">
    <walk from="615478344#1" busStop="615478344#1" speed="1.5" color="0,1,0"/>
    <stop busStop="615478344#1" duration="466" color="0,0,1"/>
  </person>
  <person id="person_88" depart="476" departLane="random" departSpeed="1.00">
    <walk from="16174062#0" busStop="16174062#0" speed="1.5" color="0,1,0"/>
    <stop busStop="16174062#0" duration="480" color="0,0,1"/>
    <walk from="16174062#0" to="-924607337#0" speed="1.5" color="0,1,0"/>
  </person>
  <person id="person_49" depart="484" departLane="random" departSpeed="1.00">
    <walk from="176435844#7" busStop="176435844#7" speed="1.5" color="0,1,0"/>
    <ride line="trad_line" busStop="176435844#7" to="-29377703#2" color="0,0,1"/>
    <walk edges="-29377703#2" speed="1.5" color="0,1,0"/>
  </person>
  <person id="person_41" depart="490" departLane="random" departSpeed="1.00">
    <walk from="107396681#6" busStop="107396681#6" speed="1.5" color="0,1,0"/>
    <stop busStop="107396681#6" duration="413" color="0,0,1"/>
  </person>
  <person id="person_34" depart="492" departLane="random" departSpeed="1.00">
    <walk from="5019952#4" busStop="5019952#4" speed="1.5" color="0,1,0"/>
    <ride line="trad_line" busStop="5019952#4" to="917450545" color="0,0,1"/>
    <walk edges="917450545" speed="1.5" color="0,1,0"/>
  </person>
  <person id="person_81" depart="500" departLane="random" departSpeed="1.00">
    <walk from="1174874706" busStop="1174874706" speed="1.5" color="0,1,0"/>
    <ride line="trad_line" busStop="1174874706" to="4332734#1" color="0,0,1"/>
    <walk edges="4332734#1" speed="1.5" color="0,1,0"/>
  </person>
</routes>
