<?xml version="1.0" ?>
<routes>
  <person id="person_1" depart="0" departLane="random" departSpeed="1.00">
    <walk from="4588647#4" busStop="4588647#4" speed="1.5" color="0,1,0"/>
    <ride line="trad_line" busStop="4588647#4" to="-368461882#0" color="0,0,1"/>
    <walk edges="-368461882#0" speed="1.5" color="0,1,0"/>
  </person>
  <person id="person_2" depart="0" departLane="random" departSpeed="1.00">
    <walk from="119883577#1" busStop="119883577#1" speed="1.5" color="0,1,0"/>
    <ride line="trad_line" busStop="119883577#1" to="1148489399#2" color="0,0,1"/>
    <walk edges="1148489399#2" speed="1.5" color="0,1,0"/>
  </person>
  <person id="person_3" depart="0" departLane="random" departSpeed="1.00">
    <walk from="-82694445#1" busStop="-82694445#1" speed="1.5" color="0,1,0"/>
    <ride line="trad_line" busStop="-82694445#1" to="706706674#0" color="0,0,1"/>
    <walk edges="706706674#0" speed="1.5" color="0,1,0"/>
  </person>
  <person id="person_4" depart="0" departLane="random" departSpeed="1.00">
    <walk from="-4332734#0" busStop="-4332734#0" speed="1.5" color="0,1,0"/>
    <ride line="trad_line" busStop="-4332734#0" to="575729555" color="0,0,1"/>
    <walk edges="575729555" speed="1.5" color="0,1,0"/>
  </person>
  <person id="person_5" depart="0" departLane="random" departSpeed="1.00">
    <walk from="940627086" busStop="940627086" speed="1.5" color="0,1,0"/>
    <ride line="trad_line" busStop="940627086" to="-303412427#18" color="0,0,1"/>
    <walk edges="-303412427#18" speed="1.5" color="0,1,0"/>
  </person>
  <person id="person_6" depart="0" departLane="random" departSpeed="1.00">
    <walk from="805198994#1" busStop="805198994#1" speed="1.5" color="0,1,0"/>
    <ride line="trad_line" busStop="805198994#1" to="615478344#0" color="0,0,1"/>
    <walk edges="615478344#0" speed="1.5" color="0,1,0"/>
  </person>
  <person id="person_7" depart="0" departLane="random" departSpeed="1.00">
    <walk from="-303412427#17" busStop="-303412427#17" speed="1.5" color="0,1,0"/>
    <ride line="trad_line" busStop="-303412427#17" to="-178615165" color="0,0,1"/>
    <walk edges="-178615165" speed="1.5" color="0,1,0"/>
  </person>
  <person id="person_8" depart="0" departLane="random" departSpeed="1.00">
    <walk from="136822574" busStop="136822574" speed="1.5" color="0,1,0"/>
    <ride line="trad_line" busStop="136822574" to="402897988#1" color="0,0,1"/>
    <walk edges="402897988#1" speed="1.5" color="0,1,0"/>
  </person>
  <person id="person_9" depart="0" departLane="random" departSpeed="1.00">
    <walk from="176435849" busStop="176435849" speed="1.5" color="0,1,0"/>
    <ride line="trad_line" busStop="176435849" to="54338767#1" color="0,0,1"/>
    <walk edges="54338767#1" speed="1.5" color="0,1,0"/>
  </person>
  <person id="person_10" depart="0" departLane="random" departSpeed="1.00">
    <walk from="4258656#0" busStop="4258656#0" speed="1.5" color="0,1,0"/>
    <ride line="trad_line" busStop="4258656#0" to="310627474#7" color="0,0,1"/>
    <walk edges="310627474#7" speed="1.5" color="0,1,0"/>
  </person>
  <person id="person_11" depart="0" departLane="random" departSpeed="1.00">
    <walk from="924607337#1" busStop="924607337#1" speed="1.5" color="0,1,0"/>
    <ride line="trad_line" busStop="924607337#1" to="4588647#4" color="0,0,1"/>
    <walk edges="4588647#4" speed="1.5" color="0,1,0"/>
  </person>
  <person id="person_12" depart="0" departLane="random" departSpeed="1.00">
    <walk from="745183364#0" busStop="745183364#0" speed="1.5" color="0,1,0"/>
    <ride line="trad_line" busStop="745183364#0" to="-187486758#1" color="0,0,1"/>
    <walk edges="-187486758#1" speed="1.5" color="0,1,0"/>
  </person>
  <person id="person_13" depart="0" departLane="random" departSpeed="1.00">
    <walk from="575729108#2" busStop="575729108#2" speed="1.5" color="0,1,0"/>
    <ride line="trad_line" busStop="575729108#2" to="303412427#13" color="0,0,1"/>
    <walk edges="303412427#13" speed="1.5" color="0,1,0"/>
  </person>
  <person id="person_14" depart="0" departLane="random" departSpeed="1.00">
    <walk from="757990562" busStop="757990562" speed="1.5" color="0,1,0"/>
    <ride line="trad_line" busStop="757990562" to="107396681#7" color="0,0,1"/>
    <walk edges="107396681#7" speed="1.5" color="0,1,0"/>
  </person>
  <person id="person_15" depart="0" departLane="random" departSpeed="1.00">
    <walk from="136822587#1" busStop="136822587#1" speed="1.5" color="0,1,0"/>
    <ride line="trad_line" busStop="136822587#1" to="4637649" color="0,0,1"/>
    <walk edges="4637649" speed="1.5" color="0,1,0"/>
  </person>
  <person id="person_16" depart="0" departLane="random" departSpeed="1.00">
    <walk from="940627086" busStop="940627086" speed="1.5" color="0,1,0"/>
    <ride line="trad_line" busStop="940627086" to="-303412427#1" color="0,0,1"/>
    <walk edges="-303412427#1" speed="1.5" color="0,1,0"/>
  </person>
  <person id="person_17" depart="0" departLane="random" departSpeed="1.00">
    <walk from="303412427#5" busStop="303412427#5" speed="1.5" color="0,1,0"/>
    <ride line="trad_line" busStop="303412427#5" to="-4332734#6" color="0,0,1"/>
    <walk edges="-4332734#6" speed="1.5" color="0,1,0"/>
  </person>
  <person id="person_18" depart="0" departLane="random" departSpeed="1.00">
    <walk from="82694458#0" busStop="82694458#0" speed="1.5" color="0,1,0"/>
    <ride line="trad_line" busStop="82694458#0" to="-615478345" color="0,0,1"/>
    <walk edges="-615478345" speed="1.5" color="0,1,0"/>
  </person>
  <person id="person_19" depart="0" departLane="random" departSpeed="1.00">
    <walk from="154644778#0" busStop="154644778#0" speed="1.5" color="0,1,0"/>
    <ride line="trad_line" busStop="154644778#0" to="820063582#0" color="0,0,1"/>
    <walk edges="820063582#0" speed="1.5" color="0,1,0"/>
  </person>
  <person id="person_20" depart="0" departLane="random" departSpeed="1.00">
    <walk from="615456193#1" busStop="615456193#1" speed="1.5" color="0,1,0"/>
    <ride line="trad_line" busStop="615456193#1" to="369686026" color="0,0,1"/>
    <walk edges="369686026" speed="1.5" color="0,1,0"/>
  </person>
  <person id="person_21" depart="0" departLane="random" departSpeed="1.00">
    <walk from="-1076442002" busStop="-1076442002" speed="1.5" color="0,1,0"/>
    <ride line="trad_line" busStop="-1076442002" to="4258656#4" color="0,0,1"/>
    <walk edges="4258656#4" speed="1.5" color="0,1,0"/>
  </person>
  <person id="person_22" depart="0" departLane="random" departSpeed="1.00">
    <walk from="615478344#0" busStop="615478344#0" speed="1.5" color="0,1,0"/>
    <ride line="trad_line" busStop="615478344#0" to="1112806233" color="0,0,1"/>
    <walk edges="1112806233" speed="1.5" color="0,1,0"/>
  </person>
  <person id="person_23" depart="0" departLane="random" departSpeed="1.00">
    <walk from="4637649" busStop="4637649" speed="1.5" color="0,1,0"/>
    <ride line="trad_line" busStop="4637649" to="-615456193#2" color="0,0,1"/>
    <walk edges="-615456193#2" speed="1.5" color="0,1,0"/>
  </person>
  <person id="person_24" depart="0" departLane="random" departSpeed="1.00">
    <walk from="745183364#1" busStop="745183364#1" speed="1.5" color="0,1,0"/>
    <ride line="trad_line" busStop="745183364#1" to="20816626#1" color="0,0,1"/>
    <walk edges="20816626#1" speed="1.5" color="0,1,0"/>
  </person>
  <person id="person_25" depart="0" departLane="random" departSpeed="1.00">
    <walk from="16174062#4" busStop="16174062#4" speed="1.5" color="0,1,0"/>
    <ride line="trad_line" busStop="16174062#4" to="310627474#2" color="0,0,1"/>
    <walk edges="310627474#2" speed="1.5" color="0,1,0"/>
  </person>
  <person id="person_26" depart="0" departLane="random" departSpeed="1.00">
    <walk from="940627086" busStop="940627086" speed="1.5" color="0,1,0"/>
    <ride line="trad_line" busStop="940627086" to="161754855#0" color="0,0,1"/>
    <walk edges="161754855#0" speed="1.5" color="0,1,0"/>
  </person>
  <person id="person_27" depart="0" departLane="random" departSpeed="1.00">
    <walk from="368461882#0" busStop="368461882#0" speed="1.5" color="0,1,0"/>
    <ride line="trad_line" busStop="368461882#0" to="16174062#2" color="0,0,1"/>
    <walk edges="16174062#2" speed="1.5" color="0,1,0"/>
  </person>
  <person id="person_28" depart="0" departLane="random" departSpeed="1.00">
    <walk from="136822587#3" busStop="136822587#3" speed="1.5" color="0,1,0"/>
    <ride line="trad_line" busStop="136822587#3" to="-924607337#4" color="0,0,1"/>
    <walk edges="-924607337#4" speed="1.5" color="0,1,0"/>
  </person>
  <person id="person_29" depart="0" departLane="random" departSpeed="1.00">
    <walk from="32981461" busStop="32981461" speed="1.5" color="0,1,0"/>
    <ride line="trad_line" busStop="32981461" to="575729555" color="0,0,1"/>
    <walk edges="575729555" speed="1.5" color="0,1,0"/>
  </person>
  <person id="person_30" depart="0" departLane="random" departSpeed="1.00">
    <walk from="-924607337#1" busStop="-924607337#1" speed="1.5" color="0,1,0"/>
    <ride line="trad_line" busStop="-924607337#1" to="757990562" color="0,0,1"/>
    <walk edges="757990562" speed="1.5" color="0,1,0"/>
  </person>
</routes>
