<routes xmlns:xsi="http://www.w3.org/2001/XMLSchema-instance" xsi:noNamespaceSchemaLocation="http://sumo.dlr.de/xsd/routes_file.xsd">
    <person id="person_1" depart="9848.892124196116">
        <walk from="-303412427#12" to="-303412427#14"/>
        <ride from="-303412427#14" to="1174874706" lines="traditional_jeepney"/>
        <walk from="1174874706" to="-4588647#0"/>
    </person>
    <person id="person_2" depart="3259.2414772132115">
        <walk from="161754855#0" to="161754855#1"/>
        <ride from="161754855#1" to="-303412427#2" lines="traditional_jeepney"/>
        <walk from="-303412427#2" to="-303412427#1"/>
    </person>
    <person id="person_3" depart="4009.542417239447">
        <walk from="917450546#0" to="917450546#0"/>
        <ride from="917450546#0" to="1148489399#1" lines="traditional_jeepney"/>
        <walk from="1148489399#1" to="107396681#7"/>
    </person>
    <person id="person_4" depart="4857.114156961515">
        <walk from="945948203" to="54338767#1"/>
        <ride from="54338767#1" to="575729108#3" lines="traditional_jeepney"/>
        <walk from="575729108#3" to="575729108#3"/>
    </person>
    <person id="person_5" depart="9933.661075190064">
        <walk from="-615478344#0" to="-615456193#2"/>
        <ride from="-615456193#2" to="1074607188" lines="traditional_jeepney"/>
        <walk from="1074607188" to="757990561"/>
    </person>
    <person id="person_6" depart="5098.682368364306">
        <walk from="4243614#1" to="685156794#0"/>
        <ride from="685156794#0" to="4332734#6" lines="traditional_jeepney"/>
        <walk from="4332734#6" to="4332734#4"/>
    </person>
    <person id="person_7" depart="3416.3514284538956">
        <walk from="-29377703#3" to="-29377703#4"/>
        <ride from="-29377703#4" to="329609972#0" lines="traditional_jeepney"/>
        <walk from="329609972#0" to="805198994#0"/>
    </person>
    <person id="person_8" depart="3037.745871148394">
        <walk from="303412427#15" to="303412427#13"/>
        <ride from="303412427#13" to="745183364#2" lines="traditional_jeepney"/>
        <walk from="745183364#2" to="-82694458#0"/>
    </person>
    <person id="person_9" depart="5913.486693696215">
        <walk from="694268908" to="368461882#1"/>
        <ride from="368461882#1" to="745183362" lines="traditional_jeepney"/>
        <walk from="745183362" to="745183364#0"/>
    </person>
    <person id="person_10" depart="5646.81278376106">
        <walk from="-303412427#17" to="-303412427#17"/>
        <ride from="-303412427#17" to="-615456193#0" lines="traditional_jeepney"/>
        <walk from="-615456193#0" to="-615456193#0"/>
    </person>
    <person id="person_11" depart="1745.023070833538">
        <walk from="136822571#3" to="136822571#2"/>
        <ride from="136822571#2" to="575729108#2" lines="traditional_jeepney"/>
        <walk from="575729108#2" to="575729108#3"/>
    </person>
    <person id="person_12" depart="9529.02750885848">
        <walk from="-368461882#0" to="-368461882#2"/>
        <ride from="-368461882#2" to="4332731" lines="traditional_jeepney"/>
        <walk from="4332731" to="-575729108#4"/>
    </person>
    <person id="person_13" depart="3899.490566466259">
        <walk from="107396681#7" to="107396681#6"/>
        <ride from="107396681#6" to="923261416" lines="traditional_jeepney"/>
        <walk from="923261416" to="694268908"/>
    </person>
    <person id="person_14" depart="7736.018527708535">
        <walk from="-303412427#10" to="-303412427#10"/>
        <ride from="-303412427#10" to="-29377703#4" lines="traditional_jeepney"/>
        <walk from="-29377703#4" to="-303412427#1"/>
    </person>
    <person id="person_15" depart="3240.696274768835">
        <walk from="-4588647#3" to="-4588647#5"/>
        <ride from="-4588647#5" to="820063578#0" lines="traditional_jeepney"/>
        <walk from="820063578#0" to="820063578#1"/>
    </person>
    <person id="person_16" depart="4676.810451128031">
        <walk from="1074607189#0" to="1074607189#0"/>
        <ride from="1074607189#0" to="575729108#4" lines="traditional_jeepney"/>
        <walk from="575729108#4" to="745183363"/>
    </person>
    <person id="person_17" depart="8193.628230888911">
        <walk from="729164041#1" to="329609972#1"/>
        <ride from="329609972#1" to="136822580#3" lines="traditional_jeepney"/>
        <walk from="136822580#3" to="295073752#0"/>
    </person>
    <person id="person_18" depart="8846.55801854019">
        <walk from="310627474#2" to="310627474#0"/>
        <ride from="310627474#0" to="-187486758#5" lines="traditional_jeepney"/>
        <walk from="-187486758#5" to="825090426"/>
    </person>
    <person id="person_19" depart="3438.2151141267336">
        <walk from="107396681#5" to="107396681#6"/>
        <ride from="107396681#6" to="119883577#5" lines="traditional_jeepney"/>
        <walk from="119883577#5" to="119883577#6"/>
    </person>
    <person id="person_20" depart="4478.491934661621">
        <walk from="757990549" to="332624272"/>
        <ride from="332624272" to="29377703#3" lines="traditional_jeepney"/>
        <walk from="29377703#3" to="29377703#4"/>
    </person>
    <person id="person_21" depart="5704.4981081980795">
        <walk from="-303412427#11" to="-303412427#9"/>
        <ride from="-303412427#9" to="615456193#2" lines="traditional_jeepney"/>
        <walk from="615456193#2" to="615456193#2"/>
    </person>
    <person id="person_22" depart="6152.591990474832">
        <walk from="-303412427#11" to="-303412427#10"/>
        <ride from="-303412427#10" to="402897988#1" lines="traditional_jeepney"/>
        <walk from="402897988#1" to="917450547#0"/>
    </person>
    <person id="person_23" depart="3959.4614757946288">
        <walk from="694268909#1" to="923261416"/>
        <ride from="923261416" to="1148489399#1" lines="traditional_jeepney"/>
        <walk from="1148489399#1" to="1148489399#2"/>
    </person>
    <person id="person_24" depart="4281.0844997747745">
        <walk from="161754854#2" to="161754854#1"/>
        <ride from="161754854#1" to="-303412427#15" lines="traditional_jeepney"/>
        <walk from="-303412427#15" to="-303412427#14"/>
    </person>
    <person id="person_25" depart="608.4776173185679">
        <walk from="-575729108#1" to="-575729108#2"/>
        <ride from="-575729108#2" to="-303412427#15" lines="traditional_jeepney"/>
        <walk from="-303412427#15" to="-303412427#17"/>
    </person>
    <person id="person_26" depart="2426.7954987744265">
        <walk from="-4588647#4" to="-4588647#5"/>
        <ride from="-4588647#5" to="805198994#0" lines="traditional_jeepney"/>
        <walk from="805198994#0" to="4258656#4"/>
    </person>
    <person id="person_27" depart="744.6337210143283">
        <walk from="729164041#0" to="820063578#0"/>
        <ride from="820063578#0" to="303412427#9" lines="traditional_jeepney"/>
        <walk from="303412427#9" to="303412427#10"/>
    </person>
    <person id="person_28" depart="9270.734516426024">
        <walk from="303412427#1" to="303412427#1"/>
        <ride from="303412427#1" to="825090426" lines="traditional_jeepney"/>
        <walk from="825090426" to="825090426"/>
    </person>
    <person id="person_29" depart="7780.42015999809">
        <walk from="-4332734#5" to="-4332734#3"/>
        <ride from="-4332734#3" to="575729555" lines="traditional_jeepney"/>
        <walk from="575729555" to="575729555"/>
    </person>
    <person id="person_30" depart="2501.2739235664794">
        <walk from="4258656#0" to="4258656#2"/>
        <ride from="4258656#2" to="176435849" lines="traditional_jeepney"/>
        <walk from="176435849" to="16174062#4"/>
    </person>
    <person id="person_31" depart="1516.5138778997289">
        <walk from="-1176045778" to="-82694445#0"/>
        <ride from="-82694445#0" to="-1176045777" lines="traditional_jeepney"/>
        <walk from="-1176045777" to="-82694458#1"/>
    </person>
    <person id="person_32" depart="3808.1281546539003">
        <walk from="-368461882#2" to="-694268908"/>
        <ride from="-694268908" to="820063587#0" lines="traditional_jeepney"/>
        <walk from="820063587#0" to="820063587#0"/>
    </person>
    <person id="person_33" depart="5387.644678791409">
        <walk from="303412427#14" to="303412427#13"/>
        <ride from="303412427#13" to="805198994#0" lines="traditional_jeepney"/>
        <walk from="805198994#0" to="805198994#0"/>
    </person>
    <person id="person_34" depart="8391.123883620054">
        <walk from="575729108#2" to="575729108#4"/>
        <ride from="575729108#4" to="4332734#4" lines="traditional_jeepney"/>
        <walk from="4332734#4" to="4332734#6"/>
    </person>
    <person id="person_35" depart="4759.064256814249">
        <walk from="-575729108#3" to="-575729108#3"/>
        <ride from="-575729108#3" to="1158575268" lines="traditional_jeepney"/>
        <walk from="1158575268" to="917450546#2"/>
    </person>
    <person id="person_36" depart="2043.1963216887339">
        <walk from="4258656#4" to="4258656#1"/>
        <ride from="4258656#1" to="924607337#1" lines="traditional_jeepney"/>
        <walk from="924607337#1" to="924607338"/>
    </person>
    <person id="person_37" depart="793.9552380897342">
        <walk from="-303412427#10" to="-303412427#8"/>
        <ride from="-303412427#8" to="615478345" lines="traditional_jeepney"/>
        <walk from="615478345" to="615456193#2"/>
    </person>
    <person id="person_38" depart="2055.7760671895176">
        <walk from="-187486758#0" to="-187486758#0"/>
        <ride from="-187486758#0" to="-924607337#1" lines="traditional_jeepney"/>
        <walk from="-924607337#1" to="-924607337#0"/>
    </person>
    <person id="person_39" depart="4163.048870342527">
        <walk from="917450546#2" to="917450546#2"/>
        <ride from="917450546#2" to="136822574" lines="traditional_jeepney"/>
        <walk from="136822574" to="136822571#2"/>
    </person>
    <person id="person_40" depart="8634.809735501276">
        <walk from="-4332734#3" to="-4332734#5"/>
        <ride from="-4332734#5" to="161754856" lines="traditional_jeepney"/>
        <walk from="161754856" to="917450546#0"/>
    </person>
    <person id="person_41" depart="7970.524365935408">
        <walk from="1076442002" to="4258656#0"/>
        <ride from="4258656#0" to="303412427#18" lines="traditional_jeepney"/>
        <walk from="303412427#18" to="303412427#19"/>
    </person>
    <person id="person_42" depart="9219.747117620742">
        <walk from="16174062#3" to="16174062#3"/>
        <ride from="16174062#3" to="4332734#0" lines="traditional_jeepney"/>
        <walk from="4332734#0" to="48630242#3"/>
    </person>
    <person id="person_43" depart="1073.2960889883625">
        <walk from="4258656#4" to="4258656#2"/>
        <ride from="4258656#2" to="303412427#5" lines="traditional_jeepney"/>
        <walk from="303412427#5" to="303412427#4"/>
    </person>
    <person id="person_44" depart="1804.163760774331">
        <walk from="303412427#16" to="303412427#17"/>
        <ride from="303412427#17" to="16174062#2" lines="traditional_jeepney"/>
        <walk from="16174062#2" to="16174062#0"/>
    </person>
    <person id="person_45" depart="733.6888967950628">
        <walk from="-303412427#3" to="-303412427#1"/>
        <ride from="-303412427#1" to="303412427#14" lines="traditional_jeepney"/>
        <walk from="303412427#14" to="303412427#16"/>
    </person>
    <person id="person_46" depart="4810.405573882058">
        <walk from="119883577#7" to="119883577#5"/>
        <ride from="119883577#5" to="136822570" lines="traditional_jeepney"/>
        <walk from="136822570" to="121188638"/>
    </person>
    <person id="person_47" depart="7489.102938554759">
        <walk from="1171640558" to="20816626#1"/>
        <ride from="20816626#1" to="5019952#0" lines="traditional_jeepney"/>
        <walk from="5019952#0" to="119883577#10"/>
    </person>
    <person id="person_48" depart="6319.658490062347">
        <walk from="1074607188" to="310627474#4"/>
        <ride from="310627474#4" to="136822571#2" lines="traditional_jeepney"/>
        <walk from="136822571#2" to="136822574"/>
    </person>
    <person id="person_49" depart="6744.387818121905">
        <walk from="368461882#1" to="368461882#0"/>
        <ride from="368461882#0" to="107396681#5" lines="traditional_jeepney"/>
        <walk from="107396681#5" to="107396681#0"/>
    </person>
    <person id="person_50" depart="2880.585425851432">
        <walk from="107396681#4" to="820063579#1"/>
        <ride from="820063579#1" to="136822584" lines="traditional_jeepney"/>
        <walk from="136822584" to="369686026"/>
    </person>
    <person id="person_51" depart="4997.837290851989">
        <walk from="332624272" to="126342419"/>
        <ride from="126342419" to="-615456193#1" lines="traditional_jeepney"/>
        <walk from="-615456193#1" to="154644778#0"/>
    </person>
    <person id="person_52" depart="9356.311754458515">
        <walk from="161754854#0" to="161754854#0"/>
        <ride from="161754854#0" to="119883577#1" lines="traditional_jeepney"/>
        <walk from="119883577#1" to="1074607189#0"/>
    </person>
    <person id="person_53" depart="2489.74310121427">
        <walk from="4258656#2" to="4258656#4"/>
        <ride from="4258656#4" to="1148489399#1" lines="traditional_jeepney"/>
        <walk from="1148489399#1" to="1148489399#1"/>
    </person>
    <person id="person_54" depart="1038.1622640330013">
        <walk from="119883577#6" to="119883577#5"/>
        <ride from="119883577#5" to="82694445#2" lines="traditional_jeepney"/>
        <walk from="82694445#2" to="82694445#0"/>
    </person>
    <person id="person_55" depart="1895.1816749555185">
        <walk from="706706674#0" to="820063579#0"/>
        <ride from="820063579#0" to="4258656#0" lines="traditional_jeepney"/>
        <walk from="4258656#0" to="4258656#2"/>
    </person>
    <person id="person_56" depart="4289.703716621223">
        <walk from="136822587#0" to="136822587#2"/>
        <ride from="136822587#2" to="-940627086" lines="traditional_jeepney"/>
        <walk from="-940627086" to="-575729555"/>
    </person>
    <person id="person_57" depart="400.8384768218165">
        <walk from="1112806233-AddedOnRampEdge" to="32981461"/>
        <ride from="32981461" to="154644778#1" lines="traditional_jeepney"/>
        <walk from="154644778#1" to="154644778#0"/>
    </person>
    <person id="person_58" depart="1136.477140352723">
        <walk from="303412427#3" to="303412427#4"/>
        <ride from="303412427#4" to="4332734#6" lines="traditional_jeepney"/>
        <walk from="4332734#6" to="4332734#7"/>
    </person>
    <person id="person_59" depart="9777.154594554071">
        <walk from="16174062#5" to="16174062#4"/>
        <ride from="16174062#4" to="-615456193#1" lines="traditional_jeepney"/>
        <walk from="-615456193#1" to="-615456193#0"/>
    </person>
    <person id="person_60" depart="2789.1504950538383">
        <walk from="4588647#3" to="4588647#3"/>
        <ride from="4588647#3" to="303412427#13" lines="traditional_jeepney"/>
        <walk from="303412427#13" to="303412427#13"/>
    </person>
    <person id="person_61" depart="2479.163669771579">
        <walk from="-575729108#3" to="-575729108#3"/>
        <ride from="-575729108#3" to="154644778#1" lines="traditional_jeepney"/>
        <walk from="154644778#1" to="-924607337#3"/>
    </person>
    <person id="person_62" depart="7556.296843448245">
        <walk from="745183365#0" to="-575729108#4"/>
        <ride from="-575729108#4" to="5019952#0" lines="traditional_jeepney"/>
        <walk from="5019952#0" to="119883577#10"/>
    </person>
    <person id="person_63" depart="6490.062294340703">
        <walk from="368461882#1" to="368461882#0"/>
        <ride from="368461882#0" to="303412427#10" lines="traditional_jeepney"/>
        <walk from="303412427#10" to="303412427#8"/>
    </person>
    <person id="person_64" depart="2804.1033883607024">
        <walk from="-303412427#9" to="-303412427#8"/>
        <ride from="-303412427#8" to="136822580#0" lines="traditional_jeepney"/>
        <walk from="136822580#0" to="136822580#0"/>
    </person>
    <person id="person_65" depart="7126.05692041935">
        <walk from="-303412427#3" to="-303412427#1"/>
        <ride from="-303412427#1" to="1148489399#0" lines="traditional_jeepney"/>
        <walk from="1148489399#0" to="107396681#7"/>
    </person>
    <person id="person_66" depart="4735.626134799664">
        <walk from="119883577#10" to="119883577#8"/>
        <ride from="119883577#8" to="745183362" lines="traditional_jeepney"/>
        <walk from="745183362" to="745183363"/>
    </person>
    <person id="person_67" depart="5767.9830332058755">
        <walk from="303412427#7" to="303412427#6"/>
        <ride from="303412427#6" to="48630242#2" lines="traditional_jeepney"/>
        <walk from="48630242#2" to="4478182"/>
    </person>
    <person id="person_68" depart="6422.147286203555">
        <walk from="575729552#0" to="575729552#0"/>
        <ride from="575729552#0" to="176435844#0" lines="traditional_jeepney"/>
        <walk from="176435844#0" to="176435850"/>
    </person>
    <person id="person_69" depart="7369.542275405791">
        <walk from="924607337#3" to="924607337#4"/>
        <ride from="924607337#4" to="136822587#2" lines="traditional_jeepney"/>
        <walk from="136822587#2" to="136822587#0"/>
    </person>
    <person id="person_70" depart="6571.73642143031">
        <walk from="4332734#2" to="4332734#4"/>
        <ride from="4332734#4" to="107396681#4" lines="traditional_jeepney"/>
        <walk from="107396681#4" to="107396681#6"/>
    </person>
    <person id="person_71" depart="829.9370624261115">
        <walk from="119883577#7" to="119883577#5"/>
        <ride from="119883577#5" to="924607338" lines="traditional_jeepney"/>
        <walk from="924607338" to="303412427#18"/>
    </person>
    <person id="person_72" depart="7024.493613102596">
        <walk from="82694445#2" to="82694445#2"/>
        <ride from="82694445#2" to="-303412427#15" lines="traditional_jeepney"/>
        <walk from="-303412427#15" to="-303412427#16"/>
    </person>
    <person id="person_73" depart="4497.085272956319">
        <walk from="-4588647#3" to="-4588647#5"/>
        <ride from="-4588647#5" to="4332734#4" lines="traditional_jeepney"/>
        <walk from="4332734#4" to="4332734#5"/>
    </person>
    <person id="person_74" depart="7849.6943340022">
        <walk from="303412427#3" to="303412427#2"/>
        <ride from="303412427#2" to="136822571#3" lines="traditional_jeepney"/>
        <walk from="136822571#3" to="136822584"/>
    </person>
    <person id="person_75" depart="168.3197895612254">
        <walk from="-29377703#2" to="-29377703#1"/>
        <ride from="-29377703#1" to="729164042#1" lines="traditional_jeepney"/>
        <walk from="729164042#1" to="805198994#1"/>
    </person>
    <person id="person_76" depart="8194.862597549996">
        <walk from="4332734#7" to="940627086"/>
        <ride from="940627086" to="368461882#1" lines="traditional_jeepney"/>
        <walk from="368461882#1" to="615478344#1"/>
    </person>
    <person id="person_77" depart="1332.8948602793632">
        <walk from="119883577#4" to="1074607189#1"/>
        <ride from="1074607189#1" to="4332734#1" lines="traditional_jeepney"/>
        <walk from="4332734#1" to="4332734#0"/>
    </person>
    <person id="person_78" depart="7935.477109981675">
        <walk from="5019952#2" to="5019952#5"/>
        <ride from="5019952#5" to="805198994#0" lines="traditional_jeepney"/>
        <walk from="805198994#0" to="805198994#0"/>
    </person>
    <person id="person_79" depart="7163.672631273062">
        <walk from="329609972#1" to="805198994#1"/>
        <ride from="805198994#1" to="4332734#6" lines="traditional_jeepney"/>
        <walk from="4332734#6" to="4332734#5"/>
    </person>
    <person id="person_80" depart="4473.005574202131">
        <walk from="303412427#4" to="303412427#6"/>
        <ride from="303412427#6" to="136822580#2" lines="traditional_jeepney"/>
        <walk from="136822580#2" to="136822580#0"/>
    </person>
    <person id="person_81" depart="1303.9473892095077">
        <walk from="-924607337#4" to="154644778#1"/>
        <ride from="154644778#1" to="917450545" lines="traditional_jeepney"/>
        <walk from="917450545" to="1112806233"/>
    </person>
    <person id="person_82" depart="2332.09105266167">
        <walk from="-368461882#1" to="-368461882#0"/>
        <ride from="-368461882#0" to="310627474#0" lines="traditional_jeepney"/>
        <walk from="310627474#0" to="20816626#1"/>
    </person>
    <person id="person_83" depart="8381.711804850702">
        <walk from="924607337#1" to="924607337#0"/>
        <ride from="924607337#0" to="-615478345" lines="traditional_jeepney"/>
        <walk from="-615478345" to="-615478345"/>
    </person>
    <person id="person_84" depart="1261.5160775572576">
        <walk from="176435850" to="820063587#0"/>
        <ride from="820063587#0" to="-694268908" lines="traditional_jeepney"/>
        <walk from="-694268908" to="-694268908"/>
    </person>
    <person id="person_85" depart="241.45918535873">
        <walk from="4332734#5" to="4332734#7"/>
        <ride from="4332734#7" to="303412427#3" lines="traditional_jeepney"/>
        <walk from="303412427#3" to="303412427#3"/>
    </person>
    <person id="person_86" depart="9341.448330634166">
        <walk from="917450546#2" to="1158575268"/>
        <ride from="1158575268" to="4332734#2" lines="traditional_jeepney"/>
        <walk from="4332734#2" to="4332734#4"/>
    </person>
    <person id="person_87" depart="6085.530938185942">
        <walk from="303412427#7" to="303412427#7"/>
        <ride from="303412427#7" to="-924607337#1" lines="traditional_jeepney"/>
        <walk from="-924607337#1" to="-924607337#3"/>
    </person>
    <person id="person_88" depart="804.2972703399809">
        <walk from="136822582" to="161754856"/>
        <ride from="161754856" to="303412427#9" lines="traditional_jeepney"/>
        <walk from="303412427#9" to="303412427#11"/>
    </person>
    <person id="person_89" depart="3950.011422567203">
        <walk from="303412427#15" to="303412427#17"/>
        <ride from="303412427#17" to="-303412427#15" lines="traditional_jeepney"/>
        <walk from="-303412427#15" to="-303412427#14"/>
    </person>
    <person id="person_90" depart="9614.377448816833">
        <walk from="136822587#2" to="136822587#2"/>
        <ride from="136822587#2" to="924607337#3" lines="traditional_jeepney"/>
        <walk from="924607337#3" to="924607337#4"/>
    </person>
    <person id="person_91" depart="4567.916905924986">
        <walk from="107396681#6" to="1148489399#0"/>
        <ride from="1148489399#0" to="-303412427#8" lines="traditional_jeepney"/>
        <walk from="-303412427#8" to="-303412427#10"/>
    </person>
    <person id="person_92" depart="5877.062576726031">
        <walk from="303412427#13" to="303412427#14"/>
        <ride from="303412427#14" to="136822575" lines="traditional_jeepney"/>
        <walk from="136822575" to="136822580#1"/>
    </person>
    <person id="person_93" depart="8416.176186257364">
        <walk from="704746731#2" to="1072039865#1"/>
        <ride from="1072039865#1" to="303412427#16" lines="traditional_jeepney"/>
        <walk from="303412427#16" to="303412427#17"/>
    </person>
    <person id="person_94" depart="7148.276537523768">
        <walk from="-303412427#15" to="-303412427#16"/>
        <ride from="-303412427#16" to="-29377703#1" lines="traditional_jeepney"/>
        <walk from="-29377703#1" to="-29377703#0"/>
    </person>
    <person id="person_95" depart="807.5517292052459">
        <walk from="29377703#4" to="29377703#4"/>
        <ride from="29377703#4" to="917450546#2" lines="traditional_jeepney"/>
        <walk from="917450546#2" to="4637649"/>
    </person>
    <person id="person_96" depart="2033.9397957025185">
        <walk from="107396681#7" to="1148489399#1"/>
        <ride from="1148489399#1" to="303412427#14" lines="traditional_jeepney"/>
        <walk from="303412427#14" to="303412427#12"/>
    </person>
    <person id="person_97" depart="3562.493166214209">
        <walk from="4588647#4" to="4588647#3"/>
        <ride from="4588647#3" to="-303412427#18" lines="traditional_jeepney"/>
        <walk from="-303412427#18" to="-303412427#16"/>
    </person>
    <person id="person_98" depart="9989.609880488748">
        <walk from="48630242#3" to="4478182"/>
        <ride from="4478182" to="1148489399#0" lines="traditional_jeepney"/>
        <walk from="1148489399#0" to="107396681#6"/>
    </person>
    <person id="person_99" depart="981.7804780201278">
        <walk from="-4332734#7" to="-4332734#7"/>
        <ride from="-4332734#7" to="745183365#0" lines="traditional_jeepney"/>
        <walk from="745183365#0" to="745183365#0"/>
    </person>
    <person id="person_100" depart="7205.535406877789">
        <walk from="694268909#1" to="694268909#1"/>
        <ride from="694268909#1" to="5019952#2" lines="traditional_jeepney"/>
        <walk from="5019952#2" to="5019952#0"/>
    </person>
    <person id="person_101" depart="2382.7994305191237">
        <walk from="119883577#1" to="119883577#5"/>
        <ride from="119883577#5" to="-575729108#2" lines="traditional_jeepney"/>
        <walk from="-575729108#2" to="-575729108#4"/>
    </person>
    <person id="person_102" depart="5038.867782318832">
        <walk from="-4332734#2" to="-4332734#3"/>
        <ride from="-4332734#3" to="1018627463" lines="traditional_jeepney"/>
        <walk from="1018627463" to="1148489399#1"/>
    </person>
    <person id="person_103" depart="4315.146276045974">
        <walk from="-923261416" to="-694268909#1"/>
        <ride from="-694268909#1" to="4478182" lines="traditional_jeepney"/>
        <walk from="4478182" to="4332734#0"/>
    </person>
    <person id="person_104" depart="4753.359416882411">
        <walk from="924607338" to="924607338"/>
        <ride from="924607338" to="745183364#1" lines="traditional_jeepney"/>
        <walk from="745183364#1" to="745183364#0"/>
    </person>
    <person id="person_105" depart="9258.824470426167">
        <walk from="1182394700" to="136822582"/>
        <ride from="136822582" to="4258656#0" lines="traditional_jeepney"/>
        <walk from="4258656#0" to="1018627464"/>
    </person>
    <person id="person_106" depart="7257.510916406967">
        <walk from="694268909#1" to="694268909#1"/>
        <ride from="694268909#1" to="119883577#8" lines="traditional_jeepney"/>
        <walk from="119883577#8" to="119883577#8"/>
    </person>
    <person id="person_107" depart="4640.411869832093">
        <walk from="924607337#4" to="924607337#2"/>
        <ride from="924607337#2" to="303412427#7" lines="traditional_jeepney"/>
        <walk from="303412427#7" to="303412427#9"/>
    </person>
    <person id="person_108" depart="853.9417496606516">
        <walk from="820063578#0" to="729164041#1"/>
        <ride from="729164041#1" to="303412427#13" lines="traditional_jeepney"/>
        <walk from="303412427#13" to="303412427#14"/>
    </person>
    <person id="person_109" depart="8467.097444736595">
        <walk from="136822574" to="136822571#2"/>
        <ride from="136822571#2" to="107396681#5" lines="traditional_jeepney"/>
        <walk from="107396681#5" to="107396681#5"/>
    </person>
    <person id="person_110" depart="2678.8102833306048">
        <walk from="694268909#1" to="1176045778"/>
        <ride from="1176045778" to="575729108#2" lines="traditional_jeepney"/>
        <walk from="575729108#2" to="575729108#2"/>
    </person>
    <person id="person_111" depart="7215.541051751052">
        <walk from="1112806233-AddedOnRampEdge" to="1112806233-AddedOnRampEdge"/>
        <ride from="1112806233-AddedOnRampEdge" to="-4332734#7" lines="traditional_jeepney"/>
        <walk from="-4332734#7" to="-4332734#5"/>
    </person>
    <person id="person_112" depart="4545.285647277866">
        <walk from="-4332734#5" to="-4332734#3"/>
        <ride from="-4332734#3" to="-924607337#1" lines="traditional_jeepney"/>
        <walk from="-924607337#1" to="-924607337#1"/>
    </person>
    <person id="person_113" depart="7605.982662900797">
        <walk from="745183364#2" to="-82694458#0"/>
        <ride from="-82694458#0" to="924607337#2" lines="traditional_jeepney"/>
        <walk from="924607337#2" to="924607337#0"/>
    </person>
    <person id="person_114" depart="6497.15829078047">
        <walk from="-303412427#11" to="-303412427#11"/>
        <ride from="-303412427#11" to="20816626#0" lines="traditional_jeepney"/>
        <walk from="20816626#0" to="20816626#1"/>
    </person>
    <person id="person_115" depart="2139.4099882025184">
        <walk from="16174062#3" to="16174062#1"/>
        <ride from="16174062#1" to="-924607337#4" lines="traditional_jeepney"/>
        <walk from="-924607337#4" to="-924607337#2"/>
    </person>
    <person id="person_116" depart="565.2917949390379">
        <walk from="119883577#1" to="119883577#4"/>
        <ride from="119883577#4" to="136822587#2" lines="traditional_jeepney"/>
        <walk from="136822587#2" to="136822587#3"/>
    </person>
    <person id="person_117" depart="3650.324628240824">
        <walk from="-615456193#1" to="154644778#0"/>
        <ride from="154644778#0" to="332624272" lines="traditional_jeepney"/>
        <walk from="332624272" to="332624272"/>
    </person>
    <person id="person_118" depart="1985.0914716447387">
        <walk from="-303412427#3" to="-303412427#2"/>
        <ride from="-303412427#2" to="310627474#2" lines="traditional_jeepney"/>
        <walk from="310627474#2" to="310627474#3"/>
    </person>
    <person id="person_119" depart="8184.053601182506">
        <walk from="-303412427#0" to="-303412427#2"/>