<?xml version="1.0" ?>
<routes>
  <person id="person_281" depart="1" departLane="random" departSpeed="1.00" color="0,1,0">
    <walk from="-4332734#0" busStop="-4332734#0" speed="1.5"/>
    <ride line="trad_line" busStop="-4332734#0" to="48630242#1"/>
    <walk edges="48630242#1" speed="1.5"/>
  </person>
  <person id="person_38" depart="2" departLane="random" departSpeed="1.00" color="0,1,0">
    <walk from="303412427#6" busStop="303412427#6" speed="1.5"/>
    <ride line="trad_line" busStop="303412427#6" to="745183364#0"/>
    <walk edges="745183364#0" speed="1.5"/>
  </person>
  <person id="person_184" depart="3" departLane="random" departSpeed="1.00" color="0,1,0">
    <walk from="-303412427#5" busStop="-303412427#5" speed="1.5"/>
    <ride line="trad_line" busStop="-303412427#5" to="-29377703#1"/>
    <walk edges="-29377703#1" speed="1.5"/>
  </person>
  <person id="person_260" depart="3" departLane="random" departSpeed="1.00" color="1,0,1">
    <walk from="82694458#0" busStop="82694458#0" speed="1.5"/>
    <stop busStop="82694458#0" duration="458"/>
  </person>
  <person id="person_117" depart="6" departLane="random" departSpeed="1.00" color="1,0,1">
    <walk from="575729108#3" busStop="575729108#3" speed="1.5"/>
    <stop busStop="575729108#3" duration="341"/>
  </person>
  <person id="person_139" depart="14" departLane="random" departSpeed="1.00" color="1,0,1">
    <walk from="-29377703#4" busStop="-29377703#4" speed="1.5"/>
    <stop busStop="-29377703#4" duration="554"/>
  </person>
  <person id="person_145" depart="14" departLane="random" departSpeed="1.00" color="1,0,0">
    <walk from="924607338" busStop="924607338" speed="1.5"/>
    <stop busStop="924607338" duration="113"/>
    <walk from="924607338" to="1112806233-AddedOnRampEdge" speed="1.5"/>
  </person>
  <person id="person_60" depart="15" departLane="random" departSpeed="1.00" color="1,0,0">
    <walk from="745183362" busStop="745183362" speed="1.5"/>
    <stop busStop="745183362" duration="367"/>
    <walk from="745183362" to="-303412427#6" speed="1.5"/>
  </person>
  <person id="person_81" depart="18" departLane="random" departSpeed="1.00" color="1,0,0">
    <walk from="1112806233-AddedOnRampEdge" busStop="1112806233-AddedOnRampEdge" speed="1.5"/>
    <stop busStop="1112806233-AddedOnRampEdge" duration="151"/>
    <walk from="1112806233-AddedOnRampEdge" to="-923261416" speed="1.5"/>
  </person>
  <person id="person_238" depart="20" departLane="random" departSpeed="1.00" color="1,0,0">
    <walk from="575729108#3" busStop="575729108#3" speed="1.5"/>
    <stop busStop="575729108#3" duration="401"/>
    <walk from="575729108#3" to="-303412427#9" speed="1.5"/>
  </person>
  <person id="person_247" depart="20" departLane="random" departSpeed="1.00" color="1,0,0">
    <walk from="-575729108#2" busStop="-575729108#2" speed="1.5"/>
    <stop busStop="-575729108#2" duration="264"/>
    <walk from="-575729108#2" to="729164041#0" speed="1.5"/>
  </person>
  <person id="person_118" depart="21" departLane="random" departSpeed="1.00" color="0,1,0">
    <walk from="161754854#2" busStop="161754854#2" speed="1.5"/>
    <ride line="trad_line" busStop="161754854#2" to="-303412427#7"/>
    <walk edges="-303412427#7" speed="1.5"/>
  </person>
  <person id="person_72" depart="23" departLane="random" departSpeed="1.00" color="1,0,1">
    <walk from="-4588647#0" busStop="-4588647#0" speed="1.5"/>
    <stop busStop="-4588647#0" duration="176"/>
  </person>
  <person id="person_80" depart="23" departLane="random" departSpeed="1.00" color="1,0,0">
    <walk from="820063587#0" busStop="820063587#0" speed="1.5"/>
    <stop busStop="820063587#0" duration="30"/>
    <walk from="820063587#0" to="729164041#1" speed="1.5"/>
  </person>
  <person id="person_92" depart="23" departLane="random" departSpeed="1.00" color="1,0,1">
    <walk from="-29377703#4" busStop="-29377703#4" speed="1.5"/>
    <stop busStop="-29377703#4" duration="257"/>
  </person>
  <person id="person_292" depart="24" departLane="random" departSpeed="1.00" color="1,0,1">
    <walk from="820063587#1" busStop="820063587#1" speed="1.5"/>
    <stop busStop="820063587#1" duration="402"/>
  </person>
  <person id="person_221" depart="26" departLane="random" departSpeed="1.00" color="0,1,0">
    <walk from="136822580#3" busStop="136822580#3" speed="1.5"/>
    <ride line="trad_line" busStop="136822580#3" to="329609972#0"/>
    <walk edges="329609972#0" speed="1.5"/>
  </person>
  <person id="person_13" depart="29" departLane="random" departSpeed="1.00" color="0,1,0">
    <walk from="820063578#1" busStop="820063578#1" speed="1.5"/>
    <ride line="trad_line" busStop="820063578#1" to="4332734#0"/>
    <walk edges="4332734#0" speed="1.5"/>
  </person>
  <person id="person_8" depart="30" departLane="random" departSpeed="1.00" color="1,0,0">
    <walk from="729164041#1" busStop="729164041#1" speed="1.5"/>
    <stop busStop="729164041#1" duration="457"/>
    <walk from="729164041#1" to="940627086" speed="1.5"/>
  </person>
  <person id="person_157" depart="30" departLane="random" departSpeed="1.00" color="0,1,0">
    <walk from="575729552#1" busStop="575729552#1" speed="1.5"/>
    <ride line="trad_line" busStop="575729552#1" to="136822582"/>
    <walk edges="136822582" speed="1.5"/>
  </person>
  <person id="person_167" depart="32" departLane="random" departSpeed="1.00" color="1,0,1">
    <walk from="303412427#17" busStop="303412427#17" speed="1.5"/>
    <stop busStop="303412427#17" duration="44"/>
  </person>
  <person id="person_186" depart="32" departLane="random" departSpeed="1.00" color="0,1,0">
    <walk from="-924607337#4" busStop="-924607337#4" speed="1.5"/>
    <ride line="trad_line" busStop="-924607337#4" to="-303412427#5"/>
    <walk edges="-303412427#5" speed="1.5"/>
  </person>
  <person id="person_115" depart="33" departLane="random" departSpeed="1.00" color="1,0,1">
    <walk from="1072039865#1" busStop="1072039865#1" speed="1.5"/>
    <stop busStop="1072039865#1" duration="244"/>
  </person>
  <person id="person_286" depart="33" departLane="random" departSpeed="1.00" color="1,0,0">
    <walk from="136822580#3" busStop="136822580#3" speed="1.5"/>
    <stop busStop="136822580#3" duration="106"/>
    <walk from="136822580#3" to="-303412427#10" speed="1.5"/>
  </person>
  <person id="person_114" depart="34" departLane="random" departSpeed="1.00" color="1,0,1">
    <walk from="-303412427#8" busStop="-303412427#8" speed="1.5"/>
    <stop busStop="-303412427#8" duration="248"/>
  </person>
  <person id="person_77" depart="35" departLane="random" departSpeed="1.00" color="0,1,0">
    <walk from="161754855#0" busStop="161754855#0" speed="1.5"/>
    <ride line="trad_line" busStop="161754855#0" to="-303412427#14"/>
    <walk edges="-303412427#14" speed="1.5"/>
  </person>
  <person id="person_7" depart="36" departLane="random" departSpeed="1.00" color="1,0,1">
    <walk from="1148489399#1" busStop="1148489399#1" speed="1.5"/>
    <stop busStop="1148489399#1" duration="471"/>
  </person>
  <person id="person_209" depart="36" departLane="random" departSpeed="1.00" color="1,0,1">
    <walk from="-575729108#1" busStop="-575729108#1" speed="1.5"/>
    <stop busStop="-575729108#1" duration="226"/>
  </person>
  <person id="person_235" depart="36" departLane="random" departSpeed="1.00" color="0,1,0">
    <walk from="820063582#1" busStop="820063582#1" speed="1.5"/>
    <ride line="trad_line" busStop="820063582#1" to="136822580#3"/>
    <walk edges="136822580#3" speed="1.5"/>
  </person>
  <person id="person_86" depart="41" departLane="random" departSpeed="1.00" color="0,1,0">
    <walk from="-29377703#2" busStop="-29377703#2" speed="1.5"/>
    <ride line="trad_line" busStop="-29377703#2" to="-29377703#1"/>
    <walk edges="-29377703#1" speed="1.5"/>
  </person>
  <person id="person_11" depart="42" departLane="random" departSpeed="1.00" color="0,1,0">
    <walk from="-615478344#1" busStop="-615478344#1" speed="1.5"/>
    <ride line="trad_line" busStop="-615478344#1" to="-924607337#2"/>
    <walk edges="-924607337#2" speed="1.5"/>
  </person>
  <person id="person_153" depart="43" departLane="random" departSpeed="1.00" color="1,0,1">
    <walk from="332624272" busStop="332624272" speed="1.5"/>
    <stop busStop="332624272" duration="567"/>
  </person>
  <person id="person_271" depart="43" departLane="random" departSpeed="1.00" color="1,0,1">
    <walk from="310627474#1" busStop="310627474#1" speed="1.5"/>
    <stop busStop="310627474#1" duration="160"/>
  </person>
  <person id="person_128" depart="49" departLane="random" departSpeed="1.00" color="0,1,0">
    <walk from="310627474#2" busStop="310627474#2" speed="1.5"/>
    <ride line="trad_line" busStop="310627474#2" to="-615456193#2"/>
    <walk edges="-615456193#2" speed="1.5"/>
  </person>
  <person id="person_240" depart="49" departLane="random" departSpeed="1.00" color="1,0,0">
    <walk from="805198994#0" busStop="805198994#0" speed="1.5"/>
    <stop busStop="805198994#0" duration="563"/>
    <walk from="805198994#0" to="-924607337#1" speed="1.5"/>
  </person>
  <person id="person_158" depart="50" departLane="random" departSpeed="1.00" color="0,1,0">
    <walk from="-4588647#5" busStop="-4588647#5" speed="1.5"/>
    <ride line="trad_line" busStop="-4588647#5" to="119883577#9"/>
    <walk edges="119883577#9" speed="1.5"/>
  </person>
  <person id="person_208" depart="58" departLane="random" departSpeed="1.00" color="1,0,0">
    <walk from="924607337#1" busStop="924607337#1" speed="1.5"/>
    <stop busStop="924607337#1" duration="186"/>
    <walk from="924607337#1" to="-940627086" speed="1.5"/>
  </person>
  <person id="person_228" depart="58" departLane="random" departSpeed="1.00" color="1,0,1">
    <walk from="-694268909#1" busStop="-694268909#1" speed="1.5"/>
    <stop busStop="-694268909#1" duration="426"/>
  </person>
  <person id="person_200" depart="59" departLane="random" departSpeed="1.00" color="1,0,0">
    <walk from="161754854#1" busStop="161754854#1" speed="1.5"/>
    <stop busStop="161754854#1" duration="268"/>
    <walk from="161754854#1" to="176435849" speed="1.5"/>
  </person>
  <person id="person_33" depart="61" departLane="random" departSpeed="1.00" color="1,0,1">
    <walk from="154644778#0" busStop="154644778#0" speed="1.5"/>
    <stop busStop="154644778#0" duration="221"/>
  </person>
  <person id="person_276" depart="61" departLane="random" departSpeed="1.00" color="0,1,0">
    <walk from="329609972#0" busStop="329609972#0" speed="1.5"/>
    <ride line="trad_line" busStop="329609972#0" to="-615456193#0"/>
    <walk edges="-615456193#0" speed="1.5"/>
  </person>
  <person id="person_137" depart="72" departLane="random" departSpeed="1.00" color="1,0,1">
    <walk from="729164042#1" busStop="729164042#1" speed="1.5"/>
    <stop busStop="729164042#1" duration="479"/>
  </person>
  <person id="person_298" depart="73" departLane="random" departSpeed="1.00" color="1,0,1">
    <walk from="126342419" busStop="126342419" speed="1.5"/>
    <stop busStop="126342419" duration="95"/>
  </person>
  <person id="person_162" depart="77" departLane="random" departSpeed="1.00" color="1,0,0">
    <walk from="4258656#4" busStop="4258656#4" speed="1.5"/>
    <stop busStop="4258656#4" duration="350"/>
    <walk from="4258656#4" to="575729108#3" speed="1.5"/>
  </person>
  <person id="person_203" depart="79" departLane="random" departSpeed="1.00" color="0,1,0">
    <walk from="-303412427#18" busStop="-303412427#18" speed="1.5"/>
    <ride line="trad_line" busStop="-303412427#18" to="-303412427#7"/>
    <walk edges="-303412427#7" speed="1.5"/>
  </person>
  <person id="person_22" depart="81" departLane="random" departSpeed="1.00" color="1,0,1">
    <walk from="-29377703#2" busStop="-29377703#2" speed="1.5"/>
    <stop busStop="-29377703#2" duration="184"/>
  </person>
  <person id="person_217" depart="82" departLane="random" departSpeed="1.00" color="1,0,0">
    <walk from="-615478344#0" busStop="-615478344#0" speed="1.5"/>
    <stop busStop="-615478344#0" duration="79"/>
    <walk from="-615478344#0" to="-924607337#2" speed="1.5"/>
  </person>
  <person id="person_183" depart="84" departLane="random" departSpeed="1.00" color="1,0,0">
    <walk from="729164041#1" busStop="729164041#1" speed="1.5"/>
    <stop busStop="729164041#1" duration="158"/>
    <walk from="729164041#1" to="48630242#3" speed="1.5"/>
  </person>
  <person id="person_234" depart="84" departLane="random" departSpeed="1.00" color="0,1,0">
    <walk from="136822575" busStop="136822575" speed="1.5"/>
    <ride line="trad_line" busStop="136822575" to="-924607337#3"/>
    <walk edges="-924607337#3" speed="1.5"/>
  </person>
  <person id="person_45" depart="87" departLane="random" departSpeed="1.00" color="1,0,1">
    <walk from="136822580#2" busStop="136822580#2" speed="1.5"/>
    <stop busStop="136822580#2" duration="395"/>
  </person>
  <person id="person_113" depart="87" departLane="random" departSpeed="1.00" color="0,1,0">
    <walk from="757990561" busStop="757990561" speed="1.5"/>
    <ride line="trad_line" busStop="757990561" to="-303412427#6"/>
    <walk edges="-303412427#6" speed="1.5"/>
  </person>
  <person id="person_95" depart="88" departLane="random" departSpeed="1.00" color="0,1,0">
    <walk from="4478182" busStop="4478182" speed="1.5"/>
    <ride line="trad_line" busStop="4478182" to="940627086"/>
    <walk edges="940627086" speed="1.5"/>
  </person>
  <person id="person_5" depart="90" departLane="random" departSpeed="1.00" color="0,1,0">
    <walk from="161754856" busStop="161754856" speed="1.5"/>
    <ride line="trad_line" busStop="161754856" to="-368461882#0"/>
    <walk edges="-368461882#0" speed="1.5"/>
  </person>
  <person id="person_220" depart="90" departLane="random" departSpeed="1.00" color="0,1,0">
    <walk from="729164041#0" busStop="729164041#0" speed="1.5"/>
    <ride line="trad_line" busStop="729164041#0" to="-368461882#0"/>
    <walk edges="-368461882#0" speed="1.5"/>
  </person>
  <person id="person_248" depart="92" departLane="random" departSpeed="1.00" color="0,1,0">
    <walk from="820063587#0" busStop="820063587#0" speed="1.5"/>
    <ride line="trad_line" busStop="820063587#0" to="-303412427#16"/>
    <walk edges="-303412427#16" speed="1.5"/>
  </person>
  <person id="person_201" depart="93" departLane="random" departSpeed="1.00" color="0,1,0">
    <walk from="-615456193#2" busStop="-615456193#2" speed="1.5"/>
    <ride line="trad_line" busStop="-615456193#2" to="-924607337#1"/>
    <walk edges="-924607337#1" speed="1.5"/>
  </person>
  <person id="person_206" depart="93" departLane="random" departSpeed="1.00" color="0,1,0">
    <walk from="575729108#3" busStop="575729108#3" speed="1.5"/>
    <ride line="trad_line" busStop="575729108#3" to="-1176045777"/>
    <walk edges="-1176045777" speed="1.5"/>
  </person>
  <person id="person_9" depart="95" departLane="random" departSpeed="1.00" color="0,1,0">
    <walk from="694268909#1" busStop="694268909#1" speed="1.5"/>
    <ride line="trad_line" busStop="694268909#1" to="161754855#0"/>
    <walk edges="161754855#0" speed="1.5"/>
  </person>
  <person id="person_267" depart="98" departLane="random" departSpeed="1.00" color="1,0,0">
    <walk from="303412427#7" busStop="303412427#7" speed="1.5"/>
    <stop busStop="303412427#7" duration="201"/>
    <walk from="303412427#7" to="136822587#1" speed="1.5"/>
  </person>
  <person id="person_3" depart="102" departLane="random" departSpeed="1.00" color="0,1,0">
    <walk from="-924607337#0" busStop="-924607337#0" speed="1.5"/>
    <ride line="trad_line" busStop="-924607337#0" to="-303412427#9"/>
    <walk edges="-303412427#9" speed="1.5"/>
  </person>
  <person id="person_210" depart="105" departLane="random" departSpeed="1.00" color="1,0,0">
    <walk from="29377703#4" busStop="29377703#4" speed="1.5"/>
    <stop busStop="29377703#4" duration="292"/>
    <walk from="29377703#4" to="119883577#9" speed="1.5"/>
  </person>
  <person id="person_214" depart="106" departLane="random" departSpeed="1.00" color="0,1,0">
    <walk from="107396681#7" busStop="107396681#7" speed="1.5"/>
    <ride line="trad_line" busStop="107396681#7" to="310627474#1"/>
    <walk edges="310627474#1" speed="1.5"/>
  </person>
  <person id="person_55" depart="107" departLane="random" departSpeed="1.00" color="1,0,0">
    <walk from="-187486758#5" busStop="-187486758#5" speed="1.5"/>
    <stop busStop="-187486758#5" duration="202"/>
    <walk from="-187486758#5" to="729164041#1" speed="1.5"/>
  </person>
  <person id="person_96" depart="108" departLane="random" departSpeed="1.00" color="1,0,1">
    <walk from="303412427#1" busStop="303412427#1" speed="1.5"/>
    <stop busStop="303412427#1" duration="591"/>
  </person>
  <person id="person_40" depart="109" departLane="random" departSpeed="1.00" color="1,0,1">
    <walk from="161754855#1" busStop="161754855#1" speed="1.5"/>
    <stop busStop="161754855#1" duration="49"/>
  </person>
  <person id="person_283" depart="116" departLane="random" departSpeed="1.00" color="0,1,0">
    <walk from="176435844#3" busStop="176435844#3" speed="1.5"/>
    <ride line="trad_line" busStop="176435844#3" to="-615456193#0"/>
    <walk edges="-615456193#0" speed="1.5"/>
  </person>
  <person id="person_16" depart="117" departLane="random" departSpeed="1.00" color="0,1,0">
    <walk from="369686026" busStop="369686026" speed="1.5"/>
    <ride line="trad_line" busStop="369686026" to="-1176045777"/>
    <walk edges="-1176045777" speed="1.5"/>
  </person>
  <person id="person_131" depart="117" departLane="random" departSpeed="1.00" color="1,0,1">
    <walk from="119883577#8" busStop="119883577#8" speed="1.5"/>
    <stop busStop="119883577#8" duration="360"/>
  </person>
  <person id="person_199" depart="117" departLane="random" departSpeed="1.00" color="1,0,1">
    <walk from="-187486758#1" busStop="-187486758#1" speed="1.5"/>
    <stop busStop="-187486758#1" duration="263"/>
  </person>
  <person id="person_79" depart="118" departLane="random" departSpeed="1.00" color="1,0,1">
    <walk from="107396681#5" busStop="107396681#5" speed="1.5"/>
    <stop busStop="107396681#5" duration="521"/>
  </person>
  <person id="person_90" depart="118" departLane="random" departSpeed="1.00" color="0,1,0">
    <walk from="1018627463" busStop="1018627463" speed="1.5"/>
    <ride line="trad_line" busStop="1018627463" to="176435844#7"/>
    <walk edges="176435844#7" speed="1.5"/>
  </person>
  <person id="person_63" depart="120" departLane="random" departSpeed="1.00" color="1,0,0">
    <walk from="-615478345" busStop="-615478345" speed="1.5"/>
    <stop busStop="-615478345" duration="451"/>
    <walk from="-615478345" to="-924607337#4" speed="1.5"/>
  </person>
  <person id="person_20" depart="122" departLane="random" departSpeed="1.00" color="1,0,1">
    <walk from="805198994#1" busStop="805198994#1" speed="1.5"/>
    <stop busStop="805198994#1" duration="115"/>
  </person>
  <person id="person_119" depart="122" departLane="random" departSpeed="1.00" color="1,0,1">
    <walk from="136822587#3" busStop="136822587#3" speed="1.5"/>
    <stop busStop="136822587#3" duration="253"/>
  </person>
  <person id="person_154" depart="125" departLane="random" departSpeed="1.00" color="1,0,0">
    <walk from="615478344#0" busStop="615478344#0" speed="1.5"/>
    <stop busStop="615478344#0" duration="414"/>
    <walk from="615478344#0" to="16174062#5" speed="1.5"/>
  </person>
  <person id="person_156" depart="127" departLane="random" departSpeed="1.00" color="1,0,1">
    <walk from="303412427#14" busStop="303412427#14" speed="1.5"/>
    <stop busStop="303412427#14" duration="499"/>
  </person>
  <person id="person_194" depart="127" departLane="random" departSpeed="1.00" color="1,0,0">
    <walk from="615456193#0" busStop="615456193#0" speed="1.5"/>
    <stop busStop="615456193#0" duration="565"/>
    <walk from="615456193#0" to="4332731" speed="1.5"/>
  </person>
  <person id="person_213" depart="128" departLane="random" departSpeed="1.00" color="0,1,0">
    <walk from="48630242#3" busStop="48630242#3" speed="1.5"/>
    <ride line="trad_line" busStop="48630242#3" to="575729108#2"/>
    <walk edges="575729108#2" speed="1.5"/>
  </person>
  <person id="person_280" depart="133" departLane="random" departSpeed="1.00" color="1,0,1">
    <walk from="1076442002" busStop="1076442002" speed="1.5"/>
    <stop busStop="1076442002" duration="82"/>
  </person>
  <person id="person_129" depart="136" departLane="random" departSpeed="1.00" color="0,1,0">
    <walk from="161754854#2" busStop="161754854#2" speed="1.5"/>
    <ride line="trad_line" busStop="161754854#2" to="-924607337#2"/>
    <walk edges="-924607337#2" speed="1.5"/>
  </person>
  <person id="person_155" depart="137" departLane="random" departSpeed="1.00" color="1,0,1">
    <walk from="924607338" busStop="924607338" speed="1.5"/>
    <stop busStop="924607338" duration="244"/>
  </person>
  <person id="person_106" depart="140" departLane="random" departSpeed="1.00" color="0,1,0">
    <walk from="121188638" busStop="121188638" speed="1.5"/>
    <ride line="trad_line" busStop="121188638" to="48630242#2"/>
    <walk edges="48630242#2" speed="1.5"/>
  </person>
  <person id="person_166" depart="141" departLane="random" departSpeed="1.00" color="1,0,0">
    <walk from="54338767#0" busStop="54338767#0" speed="1.5"/>
    <stop busStop="54338767#0" duration="540"/>
    <walk from="54338767#0" to="-694268909#0" speed="1.5"/>
  </person>
  <person id="person_46" depart="143" departLane="random" departSpeed="1.00" color="1,0,1">
    <walk from="4478182" busStop="4478182" speed="1.5"/>
    <stop busStop="4478182" duration="36"/>
  </person>
  <person id="person_212" depart="143" departLane="random" departSpeed="1.00" color="1,0,0">
    <walk from="303412427#3" busStop="303412427#3" speed="1.5"/>
    <stop busStop="303412427#3" duration="588"/>
    <walk from="303412427#3" to="303412427#15" speed="1.5"/>
  </person>
  <person id="person_278" depart="143" departLane="random" departSpeed="1.00" color="1,0,1">
    <walk from="729164041#0" busStop="729164041#0" speed="1.5"/>
    <stop busStop="729164041#0" duration="472"/>
  </person>
  <person id="person_125" depart="144" departLane="random" departSpeed="1.00" color="1,0,1">
    <walk from="-303412427#1" busStop="-303412427#1" speed="1.5"/>
    <stop busStop="-303412427#1" duration="358"/>
  </person>
  <person id="person_197" depart="145" departLane="random" departSpeed="1.00" color="0,1,0">
    <walk from="-4478182" busStop="-4478182" speed="1.5"/>
    <ride line="trad_line" busStop="-4478182" to="4332734#0"/>
    <walk edges="4332734#0" speed="1.5"/>
  </person>
  <person id="person_168" depart="146" departLane="random" departSpeed="1.00" color="1,0,1">
    <walk from="119883577#4" busStop="119883577#4" speed="1.5"/>
    <stop busStop="119883577#4" duration="89"/>
  </person>
  <person id="person_289" depart="146" departLane="random" departSpeed="1.00" color="0,1,0">
    <walk from="805198994#1" busStop="805198994#1" speed="1.5"/>
    <ride line="trad_line" busStop="805198994#1" to="729164041#1"/>
    <walk edges="729164041#1" speed="1.5"/>
  </person>
  <person id="person_103" depart="148" departLane="random" departSpeed="1.00" color="1,0,1">
    <walk from="-4332734#6" busStop="-4332734#6" speed="1.5"/>
    <stop busStop="-4332734#6" duration="321"/>
  </person>
  <person id="person_251" depart="149" departLane="random" departSpeed="1.00" color="1,0,0">
    <walk from="154644778#1" busStop="154644778#1" speed="1.5"/>
    <stop busStop="154644778#1" duration="249"/>
    <walk from="154644778#1" to="-303412427#14" speed="1.5"/>
  </person>
  <person id="person_272" depart="151" departLane="random" departSpeed="1.00" color="1,0,0">
    <walk from="154644778#1" busStop="154644778#1" speed="1.5"/>
    <stop busStop="154644778#1" duration="93"/>
    <walk from="154644778#1" to="-303412427#3" speed="1.5"/>
  </person>
  <person id="person_124" depart="152" departLane="random" departSpeed="1.00" color="0,1,0">
    <walk from="-924607337#3" busStop="-924607337#3" speed="1.5"/>
    <ride line="trad_line" busStop="-924607337#3" to="-303412427#1"/>
    <walk edges="-303412427#1" speed="1.5"/>
  </person>
  <person id="person_99" depart="154" departLane="random" departSpeed="1.00" color="1,0,1">
    <walk from="805198994#1" busStop="805198994#1" speed="1.5"/>
    <stop busStop="805198994#1" duration="125"/>
  </person>
  <person id="person_195" depart="155" departLane="random" departSpeed="1.00" color="1,0,0">
    <walk from="615478344#0" busStop="615478344#0" speed="1.5"/>
    <stop busStop="615478344#0" duration="358"/>
    <walk from="615478344#0" to="-1176045778" speed="1.5"/>
  </person>
  <person id="person_296" depart="155" departLane="random" departSpeed="1.00" color="1,0,0">
    <walk from="704746731#2" busStop="704746731#2" speed="1.5"/>
    <stop busStop="704746731#2" duration="60"/>
    <walk from="704746731#2" to="126342421" speed="1.5"/>
  </person>
  <person id="person_270" depart="156" departLane="random" departSpeed="1.00" color="1,0,1">
    <walk from="54338767#0" busStop="54338767#0" speed="1.5"/>
    <stop busStop="54338767#0" duration="145"/>
  </person>
  <person id="person_222" depart="157" departLane="random" departSpeed="1.00" color="0,1,0">
    <walk from="107396681#4" busStop="107396681#4" speed="1.5"/>
    <ride line="trad_line" busStop="107396681#4" to="136822587#0"/>
    <walk edges="136822587#0" speed="1.5"/>
  </person>
  <person id="person_17" depart="159" departLane="random" departSpeed="1.00" color="0,1,0">
    <walk from="820063578#1" busStop="820063578#1" speed="1.5"/>
    <ride line="trad_line" busStop="820063578#1" to="4332734#1"/>
    <walk edges="4332734#1" speed="1.5"/>
  </person>
  <person id="person_105" depart="162" departLane="random" departSpeed="1.00" color="1,0,0">
    <walk from="5019952#4" busStop="5019952#4" speed="1.5"/>
    <stop busStop="5019952#4" duration="265"/>
    <walk from="5019952#4" to="4332734#7" speed="1.5"/>
  </person>
  <person id="person_108" depart="162" departLane="random" departSpeed="1.00" color="1,0,0">
    <walk from="805198994#1" busStop="805198994#1" speed="1.5"/>
    <stop busStop="805198994#1" duration="315"/>
    <walk from="805198994#1" to="4332734#6" speed="1.5"/>
  </person>
  <person id="person_273" depart="163" departLane="random" departSpeed="1.00" color="1,0,0">
    <walk from="729164042#1" busStop="729164042#1" speed="1.5"/>
    <stop busStop="729164042#1" duration="62"/>
    <walk from="729164042#1" to="729164041#1" speed="1.5"/>
  </person>
  <person id="person_282" depart="166" departLane="random" departSpeed="1.00" color="1,0,1">
    <walk from="615456195" busStop="615456195" speed="1.5"/>
    <stop busStop="615456195" duration="597"/>
  </person>
  <person id="person_64" depart="168" departLane="random" departSpeed="1.00" color="1,0,0">
    <walk from="4332731" busStop="4332731" speed="1.5"/>
    <stop busStop="4332731" duration="208"/>
    <walk from="4332731" to="-924607337#3" speed="1.5"/>
  </person>
  <person id="person_142" depart="169" departLane="random" departSpeed="1.00" color="1,0,1">
    <walk from="-303412427#3" busStop="-303412427#3" speed="1.5"/>
    <stop busStop="-303412427#3" duration="502"/>
  </person>
  <person id="person_300" depart="170" departLane="random" departSpeed="1.00" color="1,0,0">
    <walk from="29377703#4" busStop="29377703#4" speed="1.5"/>
    <stop busStop="29377703#4" duration="529"/>
    <walk from="29377703#4" to="107396681#6" speed="1.5"/>
  </person>
  <person id="person_143" depart="172" departLane="random" departSpeed="1.00" color="1,0,0">
    <walk from="1148489399#1" busStop="1148489399#1" speed="1.5"/>
    <stop busStop="1148489399#1" duration="167"/>
    <walk from="1148489399#1" to="5019952#4" speed="1.5"/>
  </person>
  <person id="person_62" depart="174" departLane="random" departSpeed="1.00" color="1,0,1">
    <walk from="-4332734#7" busStop="-4332734#7" speed="1.5"/>
    <stop busStop="-4332734#7" duration="306"/>
  </person>
  <person id="person_65" depart="174" departLane="random" departSpeed="1.00" color="0,1,0">
    <walk from="1176045778" busStop="1176045778" speed="1.5"/>
    <ride line="trad_line" busStop="1176045778" to="119883577#9"/>
    <walk edges="119883577#9" speed="1.5"/>
  </person>
  <person id="person_1" depart="175" departLane="random" departSpeed="1.00" color="1,0,1">
    <walk from="303412427#5" busStop="303412427#5" speed="1.5"/>
    <stop busStop="303412427#5" duration="334"/>
  </person>
  <person id="person_26" depart="175" departLane="random" departSpeed="1.00" color="0,1,0">
    <walk from="-4332734#1" busStop="-4332734#1" speed="1.5"/>
    <ride line="trad_line" busStop="-4332734#1" to="136822571#2"/>
    <walk edges="136822571#2" speed="1.5"/>
  </person>
  <person id="person_250" depart="175" departLane="random" departSpeed="1.00" color="1,0,1">
    <walk from="923261416" busStop="923261416" speed="1.5"/>
    <stop busStop="923261416" duration="177"/>
  </person>
  <person id="person_261" depart="176" departLane="random" departSpeed="1.00" color="0,1,0">
    <walk from="-303412427#8" busStop="-303412427#8" speed="1.5"/>
    <ride line="trad_line" busStop="-303412427#8" to="-303412427#2"/>
    <walk edges="-303412427#2" speed="1.5"/>
  </person>
  <person id="person_85" depart="178" departLane="random" departSpeed="1.00" color="1,0,0">
    <walk from="107396681#5" busStop="107396681#5" speed="1.5"/>
    <stop busStop="107396681#5" duration="172"/>
    <walk from="107396681#5" to="48630242#2" speed="1.5"/>
  </person>
  <person id="person_75" depart="181" departLane="random" departSpeed="1.00" color="1,0,0">
    <walk from="1176045777" busStop="1176045777" speed="1.5"/>
    <stop busStop="1176045777" duration="593"/>
    <walk from="1176045777" to="-29377703#2" speed="1.5"/>
  </person>
  <person id="person_21" depart="184" departLane="random" departSpeed="1.00" color="0,1,0">