<?xml version="1.0" ?>
<routes>
  <person id="person_220" depart="3" departLane="random" departSpeed="1.00" color="0,1,0">
    <walk from="1174874706" busStop="1174874706" speed="1.5"/>
    <ride line="trad_line" busStop="1174874706" to="-4588647"/>
    <walk edges="-4588647" speed="1.5"/>
  </person>
  <person id="person_245" depart="4" departLane="random" departSpeed="1.00" color="1,0,0">
    <walk from="-4588647" busStop="-4588647" speed="1.5"/>
    <stop busStop="-4588647" duration="203"/>
    <walk from="-4588647" to="4588647" speed="1.5"/>
  </person>
  <person id="person_15" depart="5" departLane="random" departSpeed="1.00" color="1,0,1">
    <walk from="-4588647" busStop="-4588647" speed="1.5"/>
    <stop busStop="-4588647" duration="436"/>
  </person>
  <person id="person_232" depart="5" departLane="random" departSpeed="1.00" color="1,0,1">
    <walk from="-4588647" busStop="-4588647" speed="1.5"/>
    <stop busStop="-4588647" duration="251"/>
  </person>
  <person id="person_125" depart="7" departLane="random" departSpeed="1.00" color="0,1,0">
    <walk from="1174874706" busStop="1174874706" speed="1.5"/>
    <ride line="trad_line" busStop="1174874706" to="-4588647"/>
    <walk edges="-4588647" speed="1.5"/>
  </person>
  <person id="person_223" depart="8" departLane="random" departSpeed="1.00" color="0,1,0">
    <walk from="-917450542" busStop="-917450542" speed="1.5"/>
    <ride line="trad_line" busStop="-917450542" to="1112806233"/>
    <walk edges="1112806233" speed="1.5"/>
  </person>
  <person id="person_269" depart="10" departLane="random" departSpeed="1.00" color="0,1,0">
    <walk from="1174874706" busStop="1174874706" speed="1.5"/>
    <ride line="trad_line" busStop="1174874706" to="-917450542"/>
    <walk edges="-917450542" speed="1.5"/>
  </person>
  <person id="person_270" depart="10" departLane="random" departSpeed="1.00" color="1,0,1">
    <walk from="1174874706" busStop="1174874706" speed="1.5"/>
    <stop busStop="1174874706" duration="159"/>
  </person>
  <person id="person_292" depart="10" departLane="random" departSpeed="1.00" color="1,0,1">
    <walk from="1174874706" busStop="1174874706" speed="1.5"/>
    <stop busStop="1174874706" duration="297"/>
  </person>
  <person id="person_151" depart="13" departLane="random" departSpeed="1.00" color="1,0,1">
    <walk from="1174874706" busStop="1174874706" speed="1.5"/>
    <stop busStop="1174874706" duration="547"/>
  </person>
  <person id="person_228" depart="14" departLane="random" departSpeed="1.00" color="1,0,1">
    <walk from="-4588647" busStop="-4588647" speed="1.5"/>
    <stop busStop="-4588647" duration="497"/>
  </person>
  <person id="person_184" depart="15" departLane="random" departSpeed="1.00" color="0,1,0">
    <walk from="-4588647" busStop="-4588647" speed="1.5"/>
    <ride line="trad_line" busStop="-4588647" to="1112806233"/>
    <walk edges="1112806233" speed="1.5"/>
  </person>
  <person id="person_201" depart="15" departLane="random" departSpeed="1.00" color="0,1,0">
    <walk from="-4588647" busStop="-4588647" speed="1.5"/>
    <ride line="trad_line" busStop="-4588647" to="4588647"/>
    <walk edges="4588647" speed="1.5"/>
  </person>
  <person id="person_71" depart="17" departLane="random" departSpeed="1.00" color="0,1,0">
    <walk from="-917450542" busStop="-917450542" speed="1.5"/>
    <ride line="trad_line" busStop="-917450542" to="1112806233"/>
    <walk edges="1112806233" speed="1.5"/>
  </person>
  <person id="person_119" depart="19" departLane="random" departSpeed="1.00" color="0,1,0">
    <walk from="-917450542" busStop="-917450542" speed="1.5"/>
    <ride line="trad_line" busStop="-917450542" to="4588647"/>
    <walk edges="4588647" speed="1.5"/>
  </person>
  <person id="person_152" depart="19" departLane="random" departSpeed="1.00" color="1,0,0">
    <walk from="-917450542" busStop="-917450542" speed="1.5"/>
    <stop busStop="-917450542" duration="281"/>
    <walk from="-917450542" to="4588647" speed="1.5"/>
  </person>
  <person id="person_235" depart="19" departLane="random" departSpeed="1.00" color="0,1,0">
    <walk from="-4588647" busStop="-4588647" speed="1.5"/>
    <ride line="trad_line" busStop="-4588647" to="1112806233"/>
    <walk edges="1112806233" speed="1.5"/>
  </person>
  <person id="person_192" depart="20" departLane="random" departSpeed="1.00" color="1,0,1">
    <walk from="1112806233" busStop="1112806233" speed="1.5"/>
    <stop busStop="1112806233" duration="298"/>
  </person>
  <person id="person_132" depart="21" departLane="random" departSpeed="1.00" color="1,0,1">
    <walk from="1112806233" busStop="1112806233" speed="1.5"/>
    <stop busStop="1112806233" duration="470"/>
  </person>
  <person id="person_296" depart="22" departLane="random" departSpeed="1.00" color="1,0,0">
    <walk from="1112806233" busStop="1112806233" speed="1.5"/>
    <stop busStop="1112806233" duration="469"/>
    <walk from="1112806233" to="4588647" speed="1.5"/>
  </person>
  <person id="person_241" depart="26" departLane="random" departSpeed="1.00" color="0,1,0">
    <walk from="-4588647" busStop="-4588647" speed="1.5"/>
    <ride line="trad_line" busStop="-4588647" to="4588647"/>
    <walk edges="4588647" speed="1.5"/>
  </person>
  <person id="person_17" depart="27" departLane="random" departSpeed="1.00" color="1,0,0">
    <walk from="1174874706" busStop="1174874706" speed="1.5"/>
    <stop busStop="1174874706" duration="519"/>
    <walk from="1174874706" to="1112806233" speed="1.5"/>
  </person>
  <person id="person_37" depart="29" departLane="random" departSpeed="1.00" color="0,1,0">
    <walk from="1174874706" busStop="1174874706" speed="1.5"/>
    <ride line="trad_line" busStop="1174874706" to="1112806233"/>
    <walk edges="1112806233" speed="1.5"/>
  </person>
  <person id="person_72" depart="30" departLane="random" departSpeed="1.00" color="1,0,1">
    <walk from="-917450542" busStop="-917450542" speed="1.5"/>
    <stop busStop="-917450542" duration="114"/>
  </person>
  <person id="person_273" depart="32" departLane="random" departSpeed="1.00" color="0,1,0">
    <walk from="-4588647" busStop="-4588647" speed="1.5"/>
    <ride line="trad_line" busStop="-4588647" to="1112806233"/>
    <walk edges="1112806233" speed="1.5"/>
  </person>
  <person id="person_222" depart="37" departLane="random" departSpeed="1.00" color="1,0,0">
    <walk from="1174874706" busStop="1174874706" speed="1.5"/>
    <stop busStop="1174874706" duration="214"/>
    <walk from="1174874706" to="1112806233" speed="1.5"/>
  </person>
  <person id="person_240" depart="37" departLane="random" departSpeed="1.00" color="0,1,0">
    <walk from="-4588647" busStop="-4588647" speed="1.5"/>
    <ride line="trad_line" busStop="-4588647" to="1112806233"/>
    <walk edges="1112806233" speed="1.5"/>
  </person>
  <person id="person_16" depart="38" departLane="random" departSpeed="1.00" color="1,0,0">
    <walk from="-4588647" busStop="-4588647" speed="1.5"/>
    <stop busStop="-4588647" duration="363"/>
    <walk from="-4588647" to="4588647" speed="1.5"/>
  </person>
  <person id="person_207" depart="38" departLane="random" departSpeed="1.00" color="0,1,0">
    <walk from="-917450542" busStop="-917450542" speed="1.5"/>
    <ride line="trad_line" busStop="-917450542" to="4588647"/>
    <walk edges="4588647" speed="1.5"/>
  </person>
  <person id="person_51" depart="42" departLane="random" departSpeed="1.00" color="1,0,0">
    <walk from="1112806233" busStop="1112806233" speed="1.5"/>
    <stop busStop="1112806233" duration="334"/>
    <walk from="1112806233" to="4588647" speed="1.5"/>
  </person>
  <person id="person_94" depart="43" departLane="random" departSpeed="1.00" color="1,0,0">
    <walk from="-917450542" busStop="-917450542" speed="1.5"/>
    <stop busStop="-917450542" duration="456"/>
    <walk from="-917450542" to="-4588647" speed="1.5"/>
  </person>
  <person id="person_12" depart="44" departLane="random" departSpeed="1.00" color="0,1,0">
    <walk from="1112806233" busStop="1112806233" speed="1.5"/>
    <ride line="trad_line" busStop="1112806233" to="4588647"/>
    <walk edges="4588647" speed="1.5"/>
  </person>
  <person id="person_28" depart="44" departLane="random" departSpeed="1.00" color="1,0,1">
    <walk from="-917450542" busStop="-917450542" speed="1.5"/>
    <stop busStop="-917450542" duration="69"/>
  </person>
  <person id="person_137" depart="45" departLane="random" departSpeed="1.00" color="1,0,0">
    <walk from="1112806233" busStop="1112806233" speed="1.5"/>
    <stop busStop="1112806233" duration="61"/>
    <walk from="1112806233" to="4588647" speed="1.5"/>
  </person>
  <person id="person_179" depart="48" departLane="random" departSpeed="1.00" color="1,0,1">
    <walk from="1174874706" busStop="1174874706" speed="1.5"/>
    <stop busStop="1174874706" duration="319"/>
  </person>
  <person id="person_281" depart="49" departLane="random" departSpeed="1.00" color="1,0,1">
    <walk from="1174874706" busStop="1174874706" speed="1.5"/>
    <stop busStop="1174874706" duration="342"/>
  </person>
  <person id="person_172" depart="55" departLane="random" departSpeed="1.00" color="0,1,0">
    <walk from="1112806233" busStop="1112806233" speed="1.5"/>
    <ride line="trad_line" busStop="1112806233" to="4588647"/>
    <walk edges="4588647" speed="1.5"/>
  </person>
  <person id="person_63" depart="60" departLane="random" departSpeed="1.00" color="1,0,0">
    <walk from="1112806233" busStop="1112806233" speed="1.5"/>
    <stop busStop="1112806233" duration="240"/>
    <walk from="1112806233" to="4588647" speed="1.5"/>
  </person>
  <person id="person_183" depart="60" departLane="random" departSpeed="1.00" color="1,0,0">
    <walk from="-4588647" busStop="-4588647" speed="1.5"/>
    <stop busStop="-4588647" duration="584"/>
    <walk from="-4588647" to="4588647" speed="1.5"/>
  </person>
  <person id="person_3" depart="63" departLane="random" departSpeed="1.00" color="1,0,1">
    <walk from="-4588647" busStop="-4588647" speed="1.5"/>
    <stop busStop="-4588647" duration="116"/>
  </person>
  <person id="person_230" depart="63" departLane="random" departSpeed="1.00" color="0,1,0">
    <walk from="1174874706" busStop="1174874706" speed="1.5"/>
    <ride line="trad_line" busStop="1174874706" to="4588647"/>
    <walk edges="4588647" speed="1.5"/>
  </person>
  <person id="person_247" depart="66" departLane="random" departSpeed="1.00" color="0,1,0">
    <walk from="1174874706" busStop="1174874706" speed="1.5"/>
    <ride line="trad_line" busStop="1174874706" to="-917450542"/>
    <walk edges="-917450542" speed="1.5"/>
  </person>
  <person id="person_131" depart="67" departLane="random" departSpeed="1.00" color="1,0,1">
    <walk from="1112806233" busStop="1112806233" speed="1.5"/>
    <stop busStop="1112806233" duration="401"/>
  </person>
  <person id="person_229" depart="73" departLane="random" departSpeed="1.00" color="0,1,0">
    <walk from="1174874706" busStop="1174874706" speed="1.5"/>
    <ride line="trad_line" busStop="1174874706" to="1112806233"/>
    <walk edges="1112806233" speed="1.5"/>
  </person>
  <person id="person_243" depart="73" departLane="random" departSpeed="1.00" color="0,1,0">
    <walk from="1112806233" busStop="1112806233" speed="1.5"/>
    <ride line="trad_line" busStop="1112806233" to="4588647"/>
    <walk edges="4588647" speed="1.5"/>
  </person>
  <person id="person_44" depart="74" departLane="random" departSpeed="1.00" color="0,1,0">
    <walk from="-4588647" busStop="-4588647" speed="1.5"/>
    <ride line="trad_line" busStop="-4588647" to="4588647"/>
    <walk edges="4588647" speed="1.5"/>
  </person>
  <person id="person_142" depart="76" departLane="random" departSpeed="1.00" color="1,0,1">
    <walk from="1112806233" busStop="1112806233" speed="1.5"/>
    <stop busStop="1112806233" duration="471"/>
  </person>
  <person id="person_117" depart="77" departLane="random" departSpeed="1.00" color="0,1,0">
    <walk from="1112806233" busStop="1112806233" speed="1.5"/>
    <ride line="trad_line" busStop="1112806233" to="4588647"/>
    <walk edges="4588647" speed="1.5"/>
  </person>
  <person id="person_290" depart="77" departLane="random" departSpeed="1.00" color="1,0,1">
    <walk from="1174874706" busStop="1174874706" speed="1.5"/>
    <stop busStop="1174874706" duration="81"/>
  </person>
  <person id="person_286" depart="80" departLane="random" departSpeed="1.00" color="0,1,0">
    <walk from="1112806233" busStop="1112806233" speed="1.5"/>
    <ride line="trad_line" busStop="1112806233" to="4588647"/>
    <walk edges="4588647" speed="1.5"/>
  </person>
  <person id="person_19" depart="84" departLane="random" departSpeed="1.00" color="1,0,1">
    <walk from="-917450542" busStop="-917450542" speed="1.5"/>
    <stop busStop="-917450542" duration="514"/>
  </person>
  <person id="person_141" depart="84" departLane="random" departSpeed="1.00" color="1,0,1">
    <walk from="-917450542" busStop="-917450542" speed="1.5"/>
    <stop busStop="-917450542" duration="280"/>
  </person>
  <person id="person_56" depart="85" departLane="random" departSpeed="1.00" color="0,1,0">
    <walk from="1174874706" busStop="1174874706" speed="1.5"/>
    <ride line="trad_line" busStop="1174874706" to="-917450542"/>
    <walk edges="-917450542" speed="1.5"/>
  </person>
  <person id="person_103" depart="86" departLane="random" departSpeed="1.00" color="1,0,1">
    <walk from="-4588647" busStop="-4588647" speed="1.5"/>
    <stop busStop="-4588647" duration="87"/>
  </person>
  <person id="person_169" depart="86" departLane="random" departSpeed="1.00" color="1,0,0">
    <walk from="-4588647" busStop="-4588647" speed="1.5"/>
    <stop busStop="-4588647" duration="266"/>
    <walk from="-4588647" to="4588647" speed="1.5"/>
  </person>
  <person id="person_7" depart="87" departLane="random" departSpeed="1.00" color="0,1,0">
    <walk from="-4588647" busStop="-4588647" speed="1.5"/>
    <ride line="trad_line" busStop="-4588647" to="4588647"/>
    <walk edges="4588647" speed="1.5"/>
  </person>
  <person id="person_129" depart="91" departLane="random" departSpeed="1.00" color="1,0,1">
    <walk from="1174874706" busStop="1174874706" speed="1.5"/>
    <stop busStop="1174874706" duration="384"/>
  </person>
  <person id="person_244" depart="91" departLane="random" departSpeed="1.00" color="0,1,0">
    <walk from="1174874706" busStop="1174874706" speed="1.5"/>
    <ride line="trad_line" busStop="1174874706" to="4588647"/>
    <walk edges="4588647" speed="1.5"/>
  </person>
  <person id="person_32" depart="92" departLane="random" departSpeed="1.00" color="1,0,0">
    <walk from="1174874706" busStop="1174874706" speed="1.5"/>
    <stop busStop="1174874706" duration="353"/>
    <walk from="1174874706" to="-4588647" speed="1.5"/>
  </person>
  <person id="person_284" depart="93" departLane="random" departSpeed="1.00" color="1,0,0">
    <walk from="1112806233" busStop="1112806233" speed="1.5"/>
    <stop busStop="1112806233" duration="320"/>
    <walk from="1112806233" to="4588647" speed="1.5"/>
  </person>
  <person id="person_214" depart="95" departLane="random" departSpeed="1.00" color="1,0,1">
    <walk from="-917450542" busStop="-917450542" speed="1.5"/>
    <stop busStop="-917450542" duration="595"/>
  </person>
  <person id="person_98" depart="97" departLane="random" departSpeed="1.00" color="1,0,1">
    <walk from="1174874706" busStop="1174874706" speed="1.5"/>
    <stop busStop="1174874706" duration="351"/>
  </person>
  <person id="person_219" depart="100" departLane="random" departSpeed="1.00" color="1,0,0">
    <walk from="1174874706" busStop="1174874706" speed="1.5"/>
    <stop busStop="1174874706" duration="424"/>
    <walk from="1174874706" to="-4588647" speed="1.5"/>
  </person>
  <person id="person_248" depart="100" departLane="random" departSpeed="1.00" color="0,1,0">
    <walk from="-4588647" busStop="-4588647" speed="1.5"/>
    <ride line="trad_line" busStop="-4588647" to="1112806233"/>
    <walk edges="1112806233" speed="1.5"/>
  </person>
  <person id="person_127" depart="103" departLane="random" departSpeed="1.00" color="1,0,0">
    <walk from="-917450542" busStop="-917450542" speed="1.5"/>
    <stop busStop="-917450542" duration="589"/>
    <walk from="-917450542" to="-4588647" speed="1.5"/>
  </person>
  <person id="person_43" depart="105" departLane="random" departSpeed="1.00" color="1,0,0">
    <walk from="-917450542" busStop="-917450542" speed="1.5"/>
    <stop busStop="-917450542" duration="591"/>
    <walk from="-917450542" to="4588647" speed="1.5"/>
  </person>
  <person id="person_23" depart="107" departLane="random" departSpeed="1.00" color="0,1,0">
    <walk from="1174874706" busStop="1174874706" speed="1.5"/>
    <ride line="trad_line" busStop="1174874706" to="-4588647"/>
    <walk edges="-4588647" speed="1.5"/>
  </person>
  <person id="person_84" depart="109" departLane="random" departSpeed="1.00" color="1,0,1">
    <walk from="1112806233" busStop="1112806233" speed="1.5"/>
    <stop busStop="1112806233" duration="110"/>
  </person>
  <person id="person_145" depart="109" departLane="random" departSpeed="1.00" color="1,0,0">
    <walk from="1174874706" busStop="1174874706" speed="1.5"/>
    <stop busStop="1174874706" duration="277"/>
    <walk from="1174874706" to="-917450542" speed="1.5"/>
  </person>
  <person id="person_110" depart="110" departLane="random" departSpeed="1.00" color="1,0,1">
    <walk from="-4588647" busStop="-4588647" speed="1.5"/>
    <stop busStop="-4588647" duration="343"/>
  </person>
  <person id="person_67" depart="111" departLane="random" departSpeed="1.00" color="1,0,0">
    <walk from="1112806233" busStop="1112806233" speed="1.5"/>
    <stop busStop="1112806233" duration="169"/>
    <walk from="1112806233" to="4588647" speed="1.5"/>
  </person>
  <person id="person_70" depart="111" departLane="random" departSpeed="1.00" color="0,1,0">
    <walk from="-4588647" busStop="-4588647" speed="1.5"/>
    <ride line="trad_line" busStop="-4588647" to="1112806233"/>
    <walk edges="1112806233" speed="1.5"/>
  </person>
  <person id="person_121" depart="112" departLane="random" departSpeed="1.00" color="1,0,0">
    <walk from="1112806233" busStop="1112806233" speed="1.5"/>
    <stop busStop="1112806233" duration="76"/>
    <walk from="1112806233" to="4588647" speed="1.5"/>
  </person>
  <person id="person_191" depart="115" departLane="random" departSpeed="1.00" color="1,0,1">
    <walk from="1112806233" busStop="1112806233" speed="1.5"/>
    <stop busStop="1112806233" duration="484"/>
  </person>
  <person id="person_33" depart="116" departLane="random" departSpeed="1.00" color="1,0,1">
    <walk from="-4588647" busStop="-4588647" speed="1.5"/>
    <stop busStop="-4588647" duration="559"/>
  </person>
  <person id="person_116" depart="126" departLane="random" departSpeed="1.00" color="1,0,0">
    <walk from="-917450542" busStop="-917450542" speed="1.5"/>
    <stop busStop="-917450542" duration="265"/>
    <walk from="-917450542" to="4588647" speed="1.5"/>
  </person>
  <person id="person_166" depart="128" departLane="random" departSpeed="1.00" color="0,1,0">
    <walk from="1112806233" busStop="1112806233" speed="1.5"/>
    <ride line="trad_line" busStop="1112806233" to="4588647"/>
    <walk edges="4588647" speed="1.5"/>
  </person>
  <person id="person_209" depart="130" departLane="random" departSpeed="1.00" color="0,1,0">
    <walk from="-917450542" busStop="-917450542" speed="1.5"/>
    <ride line="trad_line" busStop="-917450542" to="1112806233"/>
    <walk edges="1112806233" speed="1.5"/>
  </person>
  <person id="person_27" depart="132" departLane="random" departSpeed="1.00" color="0,1,0">
    <walk from="1174874706" busStop="1174874706" speed="1.5"/>
    <ride line="trad_line" busStop="1174874706" to="-4588647"/>
    <walk edges="-4588647" speed="1.5"/>
  </person>
  <person id="person_217" depart="139" departLane="random" departSpeed="1.00" color="0,1,0">
    <walk from="-4588647" busStop="-4588647" speed="1.5"/>
    <ride line="trad_line" busStop="-4588647" to="4588647"/>
    <walk edges="4588647" speed="1.5"/>
  </person>
  <person id="person_287" depart="141" departLane="random" departSpeed="1.00" color="0,1,0">
    <walk from="1174874706" busStop="1174874706" speed="1.5"/>
    <ride line="trad_line" busStop="1174874706" to="-917450542"/>
    <walk edges="-917450542" speed="1.5"/>
  </person>
  <person id="person_21" depart="143" departLane="random" departSpeed="1.00" color="1,0,1">
    <walk from="-4588647" busStop="-4588647" speed="1.5"/>
    <stop busStop="-4588647" duration="54"/>
  </person>
  <person id="person_238" depart="143" departLane="random" departSpeed="1.00" color="0,1,0">
    <walk from="-917450542" busStop="-917450542" speed="1.5"/>
    <ride line="trad_line" busStop="-917450542" to="1112806233"/>
    <walk edges="1112806233" speed="1.5"/>
  </person>
  <person id="person_299" depart="144" departLane="random" departSpeed="1.00" color="0,1,0">
    <walk from="1174874706" busStop="1174874706" speed="1.5"/>
    <ride line="trad_line" busStop="1174874706" to="1112806233"/>
    <walk edges="1112806233" speed="1.5"/>
  </person>
  <person id="person_218" depart="145" departLane="random" departSpeed="1.00" color="1,0,0">
    <walk from="-917450542" busStop="-917450542" speed="1.5"/>
    <stop busStop="-917450542" duration="73"/>
    <walk from="-917450542" to="4588647" speed="1.5"/>
  </person>
  <person id="person_5" depart="146" departLane="random" departSpeed="1.00" color="1,0,0">
    <walk from="1174874706" busStop="1174874706" speed="1.5"/>
    <stop busStop="1174874706" duration="471"/>
    <walk from="1174874706" to="4588647" speed="1.5"/>
  </person>
  <person id="person_95" depart="146" departLane="random" departSpeed="1.00" color="0,1,0">
    <walk from="1174874706" busStop="1174874706" speed="1.5"/>
    <ride line="trad_line" busStop="1174874706" to="-4588647"/>
    <walk edges="-4588647" speed="1.5"/>
  </person>
  <person id="person_267" depart="146" departLane="random" departSpeed="1.00" color="0,1,0">
    <walk from="-4588647" busStop="-4588647" speed="1.5"/>
    <ride line="trad_line" busStop="-4588647" to="4588647"/>
    <walk edges="4588647" speed="1.5"/>
  </person>
  <person id="person_77" depart="147" departLane="random" departSpeed="1.00" color="1,0,1">
    <walk from="1174874706" busStop="1174874706" speed="1.5"/>
    <stop busStop="1174874706" duration="43"/>
  </person>
  <person id="person_242" depart="147" departLane="random" departSpeed="1.00" color="1,0,1">
    <walk from="-4588647" busStop="-4588647" speed="1.5"/>
    <stop busStop="-4588647" duration="106"/>
  </person>
  <person id="person_81" depart="148" departLane="random" departSpeed="1.00" color="1,0,0">
    <walk from="-4588647" busStop="-4588647" speed="1.5"/>
    <stop busStop="-4588647" duration="155"/>
    <walk from="-4588647" to="4588647" speed="1.5"/>
  </person>
  <person id="person_86" depart="149" departLane="random" departSpeed="1.00" color="0,1,0">
    <walk from="-4588647" busStop="-4588647" speed="1.5"/>
    <ride line="trad_line" busStop="-4588647" to="1112806233"/>
    <walk edges="1112806233" speed="1.5"/>
  </person>
  <person id="person_111" depart="149" departLane="random" departSpeed="1.00" color="1,0,1">
    <walk from="-917450542" busStop="-917450542" speed="1.5"/>
    <stop busStop="-917450542" duration="468"/>
  </person>
  <person id="person_76" depart="150" departLane="random" departSpeed="1.00" color="1,0,0">
    <walk from="1112806233" busStop="1112806233" speed="1.5"/>
    <stop busStop="1112806233" duration="230"/>
    <walk from="1112806233" to="4588647" speed="1.5"/>
  </person>
  <person id="person_22" depart="152" departLane="random" departSpeed="1.00" color="0,1,0">
    <walk from="1112806233" busStop="1112806233" speed="1.5"/>
    <ride line="trad_line" busStop="1112806233" to="4588647"/>
    <walk edges="4588647" speed="1.5"/>
  </person>
  <person id="person_150" depart="153" departLane="random" departSpeed="1.00" color="0,1,0">
    <walk from="1112806233" busStop="1112806233" speed="1.5"/>
    <ride line="trad_line" busStop="1112806233" to="4588647"/>
    <walk edges="4588647" speed="1.5"/>
  </person>
  <person id="person_93" depart="154" departLane="random" departSpeed="1.00" color="1,0,0">
    <walk from="1174874706" busStop="1174874706" speed="1.5"/>
    <stop busStop="1174874706" duration="577"/>
    <walk from="1174874706" to="4588647" speed="1.5"/>
  </person>
  <person id="person_54" depart="155" departLane="random" departSpeed="1.00" color="1,0,1">
    <walk from="1112806233" busStop="1112806233" speed="1.5"/>
    <stop busStop="1112806233" duration="385"/>
  </person>
  <person id="person_47" depart="156" departLane="random" departSpeed="1.00" color="0,1,0">
    <walk from="1174874706" busStop="1174874706" speed="1.5"/>
    <ride line="trad_line" busStop="1174874706" to="1112806233"/>
    <walk edges="1112806233" speed="1.5"/>
  </person>
  <person id="person_252" depart="156" departLane="random" departSpeed="1.00" color="0,1,0">
    <walk from="1174874706" busStop="1174874706" speed="1.5"/>
    <ride line="trad_line" busStop="1174874706" to="-917450542"/>
    <walk edges="-917450542" speed="1.5"/>
  </person>
  <person id="person_83" depart="157" departLane="random" departSpeed="1.00" color="0,1,0">
    <walk from="-917450542" busStop="-917450542" speed="1.5"/>
    <ride line="trad_line" busStop="-917450542" to="4588647"/>
    <walk edges="4588647" speed="1.5"/>
  </person>
  <person id="person_13" depart="158" departLane="random" departSpeed="1.00" color="1,0,0">
    <walk from="-917450542" busStop="-917450542" speed="1.5"/>
    <stop busStop="-917450542" duration="176"/>
    <walk from="-917450542" to="1112806233" speed="1.5"/>
  </person>
  <person id="person_45" depart="160" departLane="random" departSpeed="1.00" color="1,0,0">
    <walk from="-917450542" busStop="-917450542" speed="1.5"/>
    <stop busStop="-917450542" duration="576"/>
    <walk from="-917450542" to="1112806233" speed="1.5"/>
  </person>
  <person id="person_128" depart="161" departLane="random" departSpeed="1.00" color="1,0,1">
    <walk from="-4588647" busStop="-4588647" speed="1.5"/>
    <stop busStop="-4588647" duration="303"/>
  </person>
  <person id="person_18" depart="163" departLane="random" departSpeed="1.00" color="1,0,0">
    <walk from="1112806233" busStop="1112806233" speed="1.5"/>
    <stop busStop="1112806233" duration="404"/>
    <walk from="1112806233" to="4588647" speed="1.5"/>
  </person>
  <person id="person_155" depart="163" departLane="random" departSpeed="1.00" color="1,0,1">
    <walk from="1174874706" busStop="1174874706" speed="1.5"/>
    <stop busStop="1174874706" duration="228"/>
  </person>
  <person id="person_206" depart="164" departLane="random" departSpeed="1.00" color="1,0,1">
    <walk from="-917450542" busStop="-917450542" speed="1.5"/>
    <stop busStop="-917450542" duration="558"/>
  </person>
  <person id="person_226" depart="164" departLane="random" departSpeed="1.00" color="0,1,0">
    <walk from="-4588647" busStop="-4588647" speed="1.5"/>
    <ride line="trad_line" busStop="-4588647" to="1112806233"/>
    <walk edges="1112806233" speed="1.5"/>
  </person>
  <person id="person_60" depart="165" departLane="random" departSpeed="1.00" color="0,1,0">
    <walk from="1112806233" busStop="1112806233" speed="1.5"/>
    <ride line="trad_line" busStop="1112806233" to="4588647"/>
    <walk edges="4588647" speed="1.5"/>
  </person>
  <person id="person_176" depart="166" departLane="random" departSpeed="1.00" color="0,1,0">
    <walk from="1112806233" busStop="1112806233" speed="1.5"/>
    <ride line="trad_line" busStop="1112806233" to="4588647"/>
    <walk edges="4588647" speed="1.5"/>
  </person>
  <person id="person_193" depart="166" departLane="random" departSpeed="1.00" color="0,1,0">
    <walk from="1174874706" busStop="1174874706" speed="1.5"/>
    <ride line="trad_line" busStop="1174874706" to="1112806233"/>
    <walk edges="1112806233" speed="1.5"/>
  </person>
  <person id="person_195" depart="167" departLane="random" departSpeed="1.00" color="0,1,0">
    <walk from="1174874706" busStop="1174874706" speed="1.5"/>
    <ride line="trad_line" busStop="1174874706" to="1112806233"/>
    <walk edges="1112806233" speed="1.5"/>
  </person>
  <person id="person_231" depart="171" departLane="random" departSpeed="1.00" color="1,0,1">
    <walk from="-917450542" busStop="-917450542" speed="1.5"/>
    <stop busStop="-917450542" duration="455"/>
  </person>
  <person id="person_133" depart="172" departLane="random" departSpeed="1.00" color="1,0,1">
    <walk from="-4588647" busStop="-4588647" speed="1.5"/>
    <stop busStop="-4588647" duration="504"/>
  </person>
  <person id="person_268" depart="172" departLane="random" departSpeed="1.00" color="1,0,0">
    <walk from="-4588647" busStop="-4588647" speed="1.5"/>
    <stop busStop="-4588647" duration="137"/>
    <walk from="-4588647" to="4588647" speed="1.5"/>
  </person>
  <person id="person_108" depart="175" departLane="random" departSpeed="1.00" color="0,1,0">
    <walk from="1174874706" busStop="1174874706" speed="1.5"/>
    <ride line="trad_line" busStop="1174874706" to="4588647"/>
    <walk edges="4588647" speed="1.5"/>
  </person>
  <person id="person_283" depart="178" departLane="random" departSpeed="1.00" color="1,0,0">
    <walk from="1112806233" busStop="1112806233" speed="1.5"/>
    <stop busStop="1112806233" duration="375"/>
    <walk from="1112806233" to="4588647" speed="1.5"/>
  </person>
  <person id="person_26" depart="180" departLane="random" departSpeed="1.00" color="0,1,0">
    <walk from="-4588647" busStop="-4588647" speed="1.5"/>
    <ride line="trad_line" busStop="-4588647" to="1112806233"/>
    <walk edges="1112806233" speed="1.5"/>
  </person>
  <person id="person_31" depart="180" departLane="random" departSpeed="1.00" color="1,0,0">