<?xml version="1.0" ?>
<routes xmlns:xsi="http://www.w3.org/2001/XMLSchema-instance" xsi:noNamespaceSchemaLocation="http://sumo.dlr.de/xsd/routes_file.xsd">
    <vehicle id="veh_0" type="car" depart="6">
        <route edges="-4588647 -917450542 1174874706"/>
    </vehicle>
    <vehicle id="veh_44" type="motorcycle" depart="7">
        <route edges="-4588647 -917450542 1174874706"/>
    </vehicle>
    <vehicle id="veh_1" type="car" depart="12">
        <route edges="-4588647 -917450542"/>
    </vehicle>
    <vehicle id="veh_45" type="motorcycle" depart="14">
        <route edges="-4588647 -917450542 917450543"/>
    </vehicle>
    <vehicle id="jeepney_0" type="traditional_jeepney" depart="16">
        <route edges="1112806233 4588647"/>
    </vehicle>
    <vehicle id="veh_46" type="motorcycle" depart="17">
        <route edges="-917450542 1174874706"/>
    </vehicle>
    <vehicle id="veh_47" type="motorcycle" depart="20">
        <route edges="-4588647 -917450542"/>
    </vehicle>
    <vehicle id="veh_2" type="car" depart="22">
        <route edges="136822578 1174874706"/>
    </vehicle>
    <vehicle id="veh_48" type="motorcycle" depart="28">
        <route edges="1174874706"/>
    </vehicle>
    <vehicle id="veh_3" type="car" depart="30">
        <route edges="775437708 917450543"/>
    </vehicle>
    <vehicle id="jeepney_1" type="traditional_jeepney" depart="33">
        <route edges="-4588647 -917450542 1174874706"/>
    </vehicle>
    <vehicle id="veh_49" type="motorcycle" depart="36">
        <route edges="1112806233 4588647"/>
    </vehicle>
    <vehicle id="veh_4" type="car" depart="38">
        <route edges="-917450542 1174874706"/>
    </vehicle>
    <vehicle id="veh_50" type="motorcycle" depart="38">
        <route edges="775437708 917450543"/>
    </vehicle>
    <vehicle id="veh_51" type="motorcycle" depart="41">
        <route edges="-4588647 4588647"/>
    </vehicle>
    <vehicle id="veh_5" type="car" depart="46">
        <route edges="136822578 917450543"/>
    </vehicle>
    <vehicle id="veh_52" type="motorcycle" depart="47">
        <route edges="-917450542 917450543"/>
    </vehicle>
    <vehicle id="veh_53" type="motorcycle" depart="49">
        <route edges="1112806233 4588647"/>
    </vehicle>
    <vehicle id="jeepney_2" type="traditional_jeepney" depart="49">
        <route edges="1112806233 4588647"/>
    </vehicle>
    <vehicle id="modernjeepney_0" type="modern_jeepney" depart="50">
        <route edges="-4588647 -917450542 1174874706"/>
    </vehicle>
    <vehicle id="veh_6" type="car" depart="52">
        <route edges="-917450542 1174874706"/>
    </vehicle>
    <vehicle id="veh_54" type="motorcycle" depart="52">
        <route edges="-917450542 1174874706"/>
    </vehicle>
    <vehicle id="veh_148" type="bicycle" depart="55">
        <route edges="136822578 917450543"/>
    </vehicle>
    <vehicle id="veh_7" type="car" depart="56">
        <route edges="1112806233 160192389"/>
    </vehicle>
    <vehicle id="veh_55" type="motorcycle" depart="57">
        <route edges="136822578 917450543"/>
    </vehicle>
    <vehicle id="veh_56" type="motorcycle" depart="61">
        <route edges="-4588647 4588647"/>
    </vehicle>
    <vehicle id="veh_8" type="car" depart="62">
        <route edges="1174874706"/>
    </vehicle>
    <vehicle id="jeepney_3" type="traditional_jeepney" depart="62">
        <route edges="1112806233 4588647"/>
    </vehicle>
    <vehicle id="veh_9" type="car" depart="63">
        <route edges="-917450542 917450543"/>
    </vehicle>
    <vehicle id="veh_57" type="motorcycle" depart="63">
        <route edges="775437708 917450543"/>
    </vehicle>
    <vehicle id="veh_58" type="motorcycle" depart="66">
        <route edges="-917450542 917450543"/>
    </vehicle>
    <vehicle id="veh_59" type="motorcycle" depart="68">
        <route edges="-917450542 1174874706"/>
    </vehicle>
    <vehicle id="veh_60" type="motorcycle" depart="69">
        <route edges="-4588647 160192389"/>
    </vehicle>
    <vehicle id="jeepney_4" type="traditional_jeepney" depart="70">
        <route edges="-4588647 -917450542 1174874706"/>
    </vehicle>
    <vehicle id="veh_10" type="car" depart="72">
        <route edges="1174874706"/>
    </vehicle>
    <vehicle id="veh_61" type="motorcycle" depart="73">
        <route edges="-917450542 1174874706"/>
    </vehicle>
    <vehicle id="veh_62" type="motorcycle" depart="75">
        <route edges="-4588647 4588647"/>
    </vehicle>
    <vehicle id="veh_11" type="car" depart="76">
        <route edges="-4588647 -917450542 917450543"/>
    </vehicle>
    <vehicle id="veh_63" type="motorcycle" depart="77">
        <route edges="136822578 1174874706"/>
    </vehicle>
    <vehicle id="veh_12" type="car" depart="80">
        <route edges="-4588647 -917450542 917450543"/>
    </vehicle>
    <vehicle id="veh_64" type="motorcycle" depart="80">
        <route edges="1174874706"/>
    </vehicle>
    <vehicle id="veh_65" type="motorcycle" depart="81">
        <route edges="-4588647 -917450542"/>
    </vehicle>
    <vehicle id="veh_66" type="motorcycle" depart="82">
        <route edges="136822578 917450543"/>
    </vehicle>
    <vehicle id="jeepney_5" type="traditional_jeepney" depart="85">
        <route edges="1112806233 4588647"/>
    </vehicle>
    <vehicle id="veh_13" type="car" depart="86">
        <route edges="1174874706"/>
    </vehicle>
    <vehicle id="veh_67" type="motorcycle" depart="86">
        <route edges="-917450542 1174874706"/>
    </vehicle>
    <vehicle id="veh_68" type="motorcycle" depart="92">
        <route edges="-917450542 917450543"/>
    </vehicle>
    <vehicle id="jeepney_6" type="traditional_jeepney" depart="92">
        <route edges="1112806233 4588647"/>
    </vehicle>
    <vehicle id="veh_14" type="car" depart="94">
        <route edges="-4588647 -917450542 1174874706"/>
    </vehicle>
    <vehicle id="veh_69" type="motorcycle" depart="97">
        <route edges="136822578 917450543"/>
    </vehicle>
    <vehicle id="veh_70" type="motorcycle" depart="101">
        <route edges="1174874706"/>
    </vehicle>
    <vehicle id="veh_15" type="car" depart="103">
        <route edges="-917450542 1174874706"/>
    </vehicle>
    <vehicle id="veh_149" type="bicycle" depart="103">
        <route edges="1174874706"/>
    </vehicle>
    <vehicle id="jeepney_7" type="traditional_jeepney" depart="104">
        <route edges="-4588647 -917450542 1174874706"/>
    </vehicle>
    <vehicle id="veh_120" type="truck" depart="105">
        <route edges="-4588647 -917450542"/>
    </vehicle>
    <vehicle id="veh_71" type="motorcycle" depart="107">
        <route edges="-4588647 160192389"/>
    </vehicle>
    <vehicle id="veh_16" type="car" depart="111">
        <route edges="136822578 917450543"/>
    </vehicle>
    <vehicle id="modernjeepney_1" type="modern_jeepney" depart="111">
        <route edges="1112806233 4588647"/>
    </vehicle>
    <vehicle id="veh_72" type="motorcycle" depart="113">
        <route edges="136822578 1174874706"/>
    </vehicle>
    <vehicle id="veh_17" type="car" depart="115">
        <route edges="136822578 1174874706"/>
    </vehicle>
    <vehicle id="jeepney_8" type="traditional_jeepney" depart="115">
        <route edges="-4588647 -917450542 1174874706"/>
    </vehicle>
    <vehicle id="veh_73" type="motorcycle" depart="117">
        <route edges="136822578 1174874706"/>
    </vehicle>
    <vehicle id="veh_74" type="motorcycle" depart="119">
        <route edges="-917450542 1174874706"/>
    </vehicle>
    <vehicle id="veh_18" type="car" depart="120">
        <route edges="136822578 917450543"/>
    </vehicle>
    <vehicle id="veh_75" type="motorcycle" depart="122">
        <route edges="-4588647 4588647"/>
    </vehicle>
    <vehicle id="veh_76" type="motorcycle" depart="124">
        <route edges="136822578 1174874706"/>
    </vehicle>
    <vehicle id="jeepney_9" type="traditional_jeepney" depart="124">
        <route edges="-4588647 -917450542 1174874706"/>
    </vehicle>
    <vehicle id="veh_19" type="car" depart="125">
        <route edges="-4588647 -917450542 1174874706"/>
    </vehicle>
    <vehicle id="veh_77" type="motorcycle" depart="129">
        <route edges="1112806233 160192389"/>
    </vehicle>
    <vehicle id="veh_20" type="car" depart="131">
        <route edges="-4588647 -917450542 1174874706"/>
    </vehicle>
    <vehicle id="veh_78" type="motorcycle" depart="134">
        <route edges="1174874706"/>
    </vehicle>
    <vehicle id="veh_21" type="car" depart="136">
        <route edges="136822578 1174874706"/>
    </vehicle>
    <vehicle id="jeepney_10" type="traditional_jeepney" depart="137">
        <route edges="-4588647 -917450542 1174874706"/>
    </vehicle>
    <vehicle id="veh_79" type="motorcycle" depart="140">
        <route edges="1112806233 160192389"/>
    </vehicle>
    <vehicle id="veh_22" type="car" depart="141">
        <route edges="136822578 917450543"/>
    </vehicle>
    <vehicle id="veh_80" type="motorcycle" depart="142">
        <route edges="-4588647 4588647"/>
    </vehicle>
    <vehicle id="veh_81" type="motorcycle" depart="146">
        <route edges="-4588647 -917450542 917450543"/>
    </vehicle>
    <vehicle id="veh_82" type="motorcycle" depart="147">
        <route edges="-4588647 4588647"/>
    </vehicle>
    <vehicle id="jeepney_11" type="traditional_jeepney" depart="150">
        <route edges="-4588647 -917450542 1174874706"/>
    </vehicle>
    <vehicle id="veh_83" type="motorcycle" depart="152">
        <route edges="136822578 1174874706"/>
    </vehicle>
    <vehicle id="veh_23" type="car" depart="153">
        <route edges="1174874706"/>
    </vehicle>
    <vehicle id="veh_84" type="motorcycle" depart="157">
        <route edges="-917450542 917450543"/>
    </vehicle>
    <vehicle id="veh_24" type="car" depart="159">
        <route edges="136822578 1174874706"/>
    </vehicle>
    <vehicle id="veh_85" type="motorcycle" depart="159">
        <route edges="1112806233 160192389"/>
    </vehicle>
    <vehicle id="veh_86" type="motorcycle" depart="161">
        <route edges="-4588647 -917450542"/>
    </vehicle>
    <vehicle id="veh_150" type="bicycle" depart="161">
        <route edges="-917450542 917450543"/>
    </vehicle>
    <vehicle id="jeepney_12" type="traditional_jeepney" depart="163">
        <route edges="1112806233 4588647"/>
    </vehicle>
    <vehicle id="veh_87" type="motorcycle" depart="164">
        <route edges="-917450542 1174874706"/>
    </vehicle>
    <vehicle id="veh_88" type="motorcycle" depart="165">
        <route edges="136822578 1174874706"/>
    </vehicle>
    <vehicle id="veh_89" type="motorcycle" depart="168">
        <route edges="-917450542 1174874706"/>
    </vehicle>
    <vehicle id="modernjeepney_2" type="modern_jeepney" depart="169">
        <route edges="-4588647 -917450542 1174874706"/>
    </vehicle>
    <vehicle id="veh_25" type="car" depart="172">
        <route edges="-4588647 -917450542 1174874706"/>
    </vehicle>
    <vehicle id="veh_90" type="motorcycle" depart="172">
        <route edges="-4588647 -917450542 1174874706"/>
    </vehicle>
    <vehicle id="veh_91" type="motorcycle" depart="175">
        <route edges="-917450542 1174874706"/>
    </vehicle>
    <vehicle id="jeepney_13" type="traditional_jeepney" depart="175">
        <route edges="-4588647 -917450542 1174874706"/>
    </vehicle>
    <vehicle id="veh_26" type="car" depart="177">
        <route edges="136822578 1174874706"/>
    </vehicle>
    <vehicle id="veh_27" type="car" depart="179">
        <route edges="-917450542 917450543"/>
    </vehicle>
    <vehicle id="veh_92" type="motorcycle" depart="180">
        <route edges="1112806233 4588647"/>
    </vehicle>
    <vehicle id="veh_93" type="motorcycle" depart="185">
        <route edges="1174874706"/>
    </vehicle>
    <vehicle id="veh_94" type="motorcycle" depart="187">
        <route edges="-4588647 -917450542 1174874706"/>
    </vehicle>
    <vehicle id="veh_28" type="car" depart="189">
        <route edges="1174874706"/>
    </vehicle>
    <vehicle id="veh_95" type="motorcycle" depart="190">
        <route edges="136822578 917450543"/>
    </vehicle>
    <vehicle id="jeepney_14" type="traditional_jeepney" depart="192">
        <route edges="-4588647 -917450542 1174874706"/>
    </vehicle>
    <vehicle id="veh_29" type="car" depart="193">
        <route edges="-4588647 -917450542 917450543"/>
    </vehicle>
    <vehicle id="veh_96" type="motorcycle" depart="194">
        <route edges="1112806233 4588647"/>
    </vehicle>
    <vehicle id="veh_30" type="car" depart="196">
        <route edges="-4588647 4588647"/>
    </vehicle>
    <vehicle id="veh_97" type="motorcycle" depart="202">
        <route edges="1174874706"/>
    </vehicle>
    <vehicle id="veh_121" type="truck" depart="204">
        <route edges="1174874706"/>
    </vehicle>
    <vehicle id="jeepney_15" type="traditional_jeepney" depart="205">
        <route edges="-4588647 -917450542 1174874706"/>
    </vehicle>
    <vehicle id="veh_31" type="car" depart="207">
        <route edges="-4588647 4588647"/>
    </vehicle>
    <vehicle id="veh_98" type="motorcycle" depart="208">
        <route edges="-917450542 1174874706"/>
    </vehicle>
    <vehicle id="veh_151" type="bicycle" depart="211">
        <route edges="775437708 917450543"/>
    </vehicle>
    <vehicle id="veh_99" type="motorcycle" depart="213">
        <route edges="-917450542 1174874706"/>
    </vehicle>
    <vehicle id="veh_32" type="car" depart="217">
        <route edges="136822578 1174874706"/>
    </vehicle>
    <vehicle id="veh_100" type="motorcycle" depart="218">
        <route edges="775437708 917450543"/>
    </vehicle>
    <vehicle id="jeepney_16" type="traditional_jeepney" depart="222">
        <route edges="1112806233 4588647"/>
    </vehicle>
    <vehicle id="veh_33" type="car" depart="223">
        <route edges="136822578 1174874706"/>
    </vehicle>
    <vehicle id="veh_101" type="motorcycle" depart="224">
        <route edges="-917450542 1174874706"/>
    </vehicle>
    <vehicle id="veh_34" type="car" depart="229">
        <route edges="-4588647 -917450542 1174874706"/>
    </vehicle>
    <vehicle id="veh_102" type="motorcycle" depart="229">
        <route edges="-4588647 -917450542 1174874706"/>
    </vehicle>
    <vehicle id="modernjeepney_3" type="modern_jeepney" depart="231">
        <route edges="1112806233 4588647"/>
    </vehicle>
    <vehicle id="jeepney_17" type="traditional_jeepney" depart="232">
        <route edges="-4588647 -917450542 1174874706"/>
    </vehicle>
    <vehicle id="veh_103" type="motorcycle" depart="233">
        <route edges="-917450542 1174874706"/>
    </vehicle>
    <vehicle id="veh_35" type="car" depart="235">
        <route edges="-4588647 -917450542 1174874706"/>
    </vehicle>
    <vehicle id="veh_104" type="motorcycle" depart="236">
        <route edges="-4588647 -917450542 1174874706"/>
    </vehicle>
    <vehicle id="veh_105" type="motorcycle" depart="237">
        <route edges="1112806233 160192389"/>
    </vehicle>
    <vehicle id="veh_106" type="motorcycle" depart="239">
        <route edges="136822578 917450543"/>
    </vehicle>
    <vehicle id="veh_107" type="motorcycle" depart="243">
        <route edges="136822578 917450543"/>
    </vehicle>
    <vehicle id="jeepney_18" type="traditional_jeepney" depart="244">
        <route edges="1112806233 4588647"/>
    </vehicle>
    <vehicle id="veh_36" type="car" depart="245">
        <route edges="1174874706"/>
    </vehicle>
    <vehicle id="veh_108" type="motorcycle" depart="248">
        <route edges="-4588647 -917450542 1174874706"/>
    </vehicle>
    <vehicle id="veh_109" type="motorcycle" depart="252">
        <route edges="775437708 917450543"/>
    </vehicle>
    <vehicle id="veh_110" type="motorcycle" depart="256">
        <route edges="-917450542 917450543"/>
    </vehicle>
    <vehicle id="veh_37" type="car" depart="257">
        <route edges="-4588647 -917450542 917450543"/>
    </vehicle>
    <vehicle id="veh_38" type="car" depart="259">
        <route edges="136822578 917450543"/>
    </vehicle>
    <vehicle id="veh_111" type="motorcycle" depart="260">
        <route edges="1174874706"/>
    </vehicle>
    <vehicle id="jeepney_19" type="traditional_jeepney" depart="262">
        <route edges="1112806233 4588647"/>
    </vehicle>
    <vehicle id="veh_112" type="motorcycle" depart="263">
        <route edges="-4588647 -917450542"/>
    </vehicle>
    <vehicle id="veh_113" type="motorcycle" depart="264">
        <route edges="-4588647 -917450542 1174874706"/>
    </vehicle>
    <vehicle id="veh_39" type="car" depart="265">
        <route edges="775437708 917450543"/>
    </vehicle>
    <vehicle id="veh_152" type="bicycle" depart="271">
        <route edges="-4588647 -917450542 1174874706"/>
    </vehicle>
    <vehicle id="veh_40" type="car" depart="272">
        <route edges="1112806233 160192389"/>
    </vehicle>
    <vehicle id="jeepney_20" type="traditional_jeepney" depart="274">
        <route edges="1112806233 4588647"/>
    </vehicle>
    <vehicle id="veh_41" type="car" depart="275">
        <route edges="-4588647 4588647"/>
    </vehicle>
    <vehicle id="veh_114" type="motorcycle" depart="276">
        <route edges="1174874706"/>
    </vehicle>
    <vehicle id="veh_115" type="motorcycle" depart="282">
        <route edges="-4588647 -917450542"/>
    </vehicle>
    <vehicle id="veh_42" type="car" depart="283">
        <route edges="-4588647 -917450542 917450543"/>
    </vehicle>
    <vehicle id="veh_116" type="motorcycle" depart="288">
        <route edges="-917450542 1174874706"/>
    </vehicle>
    <vehicle id="veh_43" type="car" depart="290">
        <route edges="-4588647 4588647"/>
    </vehicle>
    <vehicle id="veh_117" type="motorcycle" depart="291">
        <route edges="1174874706"/>
    </vehicle>
    <vehicle id="veh_118" type="motorcycle" depart="293">
        <route edges="-4588647 160192389"/>
    </vehicle>
    <vehicle id="modernjeepney_4" type="modern_jeepney" depart="295">
        <route edges="-4588647 -917450542 1174874706"/>
    </vehicle>
    <vehicle id="veh_119" type="motorcycle" depart="296">
        <route edges="1174874706"/>
    </vehicle>
    <vehicle id="veh_197" type="motorcycle" depart="305">
        <route edges="136822578 1174874706"/>
    </vehicle>
    <vehicle id="veh_153" type="car" depart="309">
        <route edges="1174874706"/>
    </vehicle>
    <vehicle id="veh_198" type="motorcycle" depart="311">
        <route edges="-4588647 160192389"/>
    </vehicle>
    <vehicle id="veh_199" type="motorcycle" depart="315">
        <route edges="-4588647 -917450542"/>
    </vehicle>
    <vehicle id="veh_154" type="car" depart="318">
        <route edges="1174874706"/>
    </vehicle>
    <vehicle id="jeepney_21" type="traditional_jeepney" depart="318">
        <route edges="1112806233 4588647"/>
    </vehicle>
    <vehicle id="veh_200" type="motorcycle" depart="319">
        <route edges="136822578 1174874706"/>
    </vehicle>
    <vehicle id="veh_201" type="motorcycle" depart="322">
        <route edges="1112806233 160192389"/>
    </vehicle>
    <vehicle id="veh_155" type="car" depart="323">
        <route edges="136822578 1174874706"/>
    </vehicle>
    <vehicle id="veh_156" type="car" depart="325">
        <route edges="-4588647 4588647"/>
    </vehicle>
    <vehicle id="veh_202" type="motorcycle" depart="328">
        <route edges="-4588647 160192389"/>
    </vehicle>
    <vehicle id="veh_157" type="car" depart="330">
        <route edges="775437708 917450543"/>
    </vehicle>
    <vehicle id="veh_203" type="motorcycle" depart="332">
        <route edges="-4588647 -917450542"/>
    </vehicle>
    <vehicle id="veh_204" type="motorcycle" depart="338">
        <route edges="-4588647 -917450542 1174874706"/>
    </vehicle>
    <vehicle id="veh_158" type="car" depart="340">
        <route edges="1174874706"/>
    </vehicle>
    <vehicle id="veh_205" type="motorcycle" depart="341">
        <route edges="-4588647 -917450542 1174874706"/>
    </vehicle>
    <vehicle id="jeepney_22" type="traditional_jeepney" depart="344">
        <route edges="1112806233 4588647"/>
    </vehicle>
    <vehicle id="veh_206" type="motorcycle" depart="345">
        <route edges="136822578 917450543"/>
    </vehicle>
    <vehicle id="veh_159" type="car" depart="346">
        <route edges="-917450542 1174874706"/>
    </vehicle>
    <vehicle id="veh_207" type="motorcycle" depart="349">
        <route edges="-4588647 -917450542 1174874706"/>
    </vehicle>
    <vehicle id="veh_293" type="bicycle" depart="351">
        <route edges="-917450542 1174874706"/>
    </vehicle>
    <vehicle id="veh_208" type="motorcycle" depart="354">
        <route edges="1112806233 4588647"/>
    </vehicle>
    <vehicle id="veh_160" type="car" depart="355">
        <route edges="-917450542 1174874706"/>
    </vehicle>
    <vehicle id="veh_209" type="motorcycle" depart="356">
        <route edges="-917450542 1174874706"/>
    </vehicle>
    <vehicle id="jeepney_23" type="traditional_jeepney" depart="357">
        <route edges="1112806233 4588647"/>
    </vehicle>
    <vehicle id="veh_210" type="motorcycle" depart="359">
        <route edges="136822578 917450543"/>
    </vehicle>
    <vehicle id="veh_211" type="motorcycle" depart="361">
        <route edges="-4588647 -917450542 1174874706"/>
    </vehicle>
    <vehicle id="veh_270" type="truck" depart="361">
        <route edges="1174874706"/>
    </vehicle>
    <vehicle id="veh_161" type="car" depart="364">
        <route edges="-4588647 -917450542 1174874706"/>
    </vehicle>
    <vehicle id="veh_212" type="motorcycle" depart="365">
        <route edges="-917450542 1174874706"/>
    </vehicle>
    <vehicle id="veh_213" type="motorcycle" depart="368">
        <route edges="-4588647 -917450542 1174874706"/>
    </vehicle>
    <vehicle id="veh_214" type="motorcycle" depart="370">
        <route edges="136822578 917450543"/>
    </vehicle>
    <vehicle id="veh_162" type="car" depart="372">
        <route edges="1112806233 160192389"/>
    </vehicle>
    <vehicle id="modernjeepney_5" type="modern_jeepney" depart="372">
        <route edges="1112806233 4588647"/>
    </vehicle>
    <vehicle id="veh_215" type="motorcycle" depart="373">
        <route edges="-917450542 917450543"/>
    </vehicle>
    <vehicle id="jeepney_24" type="traditional_jeepney" depart="374">
        <route edges="-4588647 -917450542 1174874706"/>
    </vehicle>
    <vehicle id="veh_216" type="motorcycle" depart="377">
        <route edges="1112806233 4588647"/>
    </vehicle>
    <vehicle id="veh_163" type="car" depart="380">
        <route edges="775437708 917450543"/>
    </vehicle>
    <vehicle id="veh_217" type="motorcycle" depart="382">
        <route edges="1112806233 160192389"/>
    </vehicle>
    <vehicle id="veh_218" type="motorcycle" depart="385">
        <route edges="1174874706"/>
    </vehicle>
    <vehicle id="veh_164" type="car" depart="387">
        <route edges="136822578 1174874706"/>
    </vehicle>
    <vehicle id="jeepney_25" type="traditional_jeepney" depart="388">
        <route edges="-4588647 -917450542 1174874706"/>
    </vehicle>
    <vehicle id="veh_219" type="motorcycle" depart="389">
        <route edges="-917450542 917450543"/>
    </vehicle>
    <vehicle id="veh_220" type="motorcycle" depart="392">
        <route edges="-4588647 -917450542 917450543"/>
    </vehicle>
    <vehicle id="veh_294" type="bicycle" depart="394">
        <route edges="-917450542 1174874706"/>
    </vehicle>
    <vehicle id="veh_165" type="car" depart="398">
        <route edges="-4588647 160192389"/>
    </vehicle>
    <vehicle id="veh_221" type="motorcycle" depart="399">
        <route edges="-4588647 -917450542"/>
    </vehicle>
    <vehicle id="veh_222" type="motorcycle" depart="402">
        <route edges="-4588647 160192389"/>
    </vehicle>
    <vehicle id="veh_166" type="car" depart="403">
        <route edges="-4588647 -917450542 1174874706"/>
    </vehicle>
    <vehicle id="veh_223" type="motorcycle" depart="409">
        <route edges="-4588647 160192389"/>
    </vehicle>
    <vehicle id="veh_224" type="motorcycle" depart="410">
        <route edges="1174874706"/>
    </vehicle>
    <vehicle id="jeepney_26" type="traditional_jeepney" depart="410">
        <route edges="-4588647 -917450542 1174874706"/>
    </vehicle>
    <vehicle id="veh_167" type="car" depart="411">
        <route edges="1174874706"/>
    </vehicle>
    <vehicle id="veh_225" type="motorcycle" depart="413">
        <route edges="136822578 1174874706"/>
    </vehicle>
    <vehicle id="veh_226" type="motorcycle" depart="419">
        <route edges="-917450542 917450543"/>
    </vehicle>
    <vehicle id="veh_168" type="car" depart="420">
        <route edges="775437708 917450543"/>
    </vehicle>
    <vehicle id="veh_227" type="motorcycle" depart="423">
        <route edges="-4588647 -917450542"/>
    </vehicle>
    <vehicle id="veh_228" type="motorcycle" depart="426">
        <route edges="-4588647 -917450542"/>
    </vehicle>
    <vehicle id="jeepney_27" type="traditional_jeepney" depart="426">
        <route edges="1112806233 4588647"/>
    </vehicle>
    <vehicle id="veh_169" type="car" depart="427">
        <route edges="136822578 917450543"/>
    </vehicle>
    <vehicle id="veh_229" type="motorcycle" depart="430">
        <route edges="-4588647 4588647"/>
    </vehicle>
    <vehicle id="veh_230" type="motorcycle" depart="433">
        <route edges="1112806233 4588647"/>
    </vehicle>
    <vehicle id="veh_271" type="truck" depart="433">
        <route edges="-4588647 4588647"/>
    </vehicle>
    <vehicle id="veh_170" type="car" depart="435">
        <route edges="-4588647 -917450542 1174874706"/>
    </vehicle>
    <vehicle id="veh_231" type="motorcycle" depart="437">
        <route edges="1112806233 160192389"/>
    </vehicle>
    <vehicle id="veh_171" type="car" depart="442">
        <route edges="136822578 1174874706"/>
    </vehicle>
    <vehicle id="jeepney_28" type="traditional_jeepney" depart="442">
        <route edges="1112806233 4588647"/>
    </vehicle>
    <vehicle id="veh_295" type="bicycle" depart="442">
        <route edges="775437708 917450543"/>
    </vehicle>
    <vehicle id="veh_232" type="motorcycle" depart="444">
        <route edges="136822578 1174874706"/>
    </vehicle>
    <vehicle id="veh_233" type="motorcycle" depart="446">
        <route edges="-917450542 1174874706"/>
    </vehicle>
    <vehicle id="veh_172" type="car" depart="447">
        <route edges="136822578 1174874706"/>
    </vehicle>
    <vehicle id="veh_234" type="motorcycle" depart="452">
        <route edges="1112806233 160192389"/>
    </vehicle>
    <vehicle id="veh_173" type="car" depart="454">
        <route edges="136822578 1174874706"/>
    </vehicle>
    <vehicle id="veh_235" type="motorcycle" depart="458">
        <route edges="136822578 917450543"/>
    </vehicle>
    <vehicle id="veh_174" type="car" depart="459">
        <route edges="1174874706"/>
    </vehicle>
    <vehicle id="modernjeepney_6" type="modern_jeepney" depart="459">
        <route edges="-4588647 -917450542 1174874706"/>
    </vehicle>
    <vehicle id="jeepney_29" type="traditional_jeepney" depart="461">
        <route edges="1112806233 4588647"/>
    </vehicle>
    <vehicle id="veh_236" type="motorcycle" depart="465">
        <route edges="136822578 1174874706"/>
    </vehicle>
    <vehicle id="veh_175" type="car" depart="466">
        <route edges="-4588647 4588647"/>
    </vehicle>
    <vehicle id="veh_176" type="car" depart="471">
        <route edges="-4588647 4588647"/>
    </vehicle>
    <vehicle id="veh_237" type="motorcycle" depart="472">
        <route edges="775437708 917450543"/>
    </vehicle>
    <vehicle id="jeepney_30" type="traditional_jeepney" depart="472">
        <route edges="1112806233 4588647"/>
    </vehicle>
    <vehicle id="veh_177" type="car" depart="474">
        <route edges="136822578 1174874706"/>
    </vehicle>
    <vehicle id="veh_238" type="motorcycle" depart="475">
        <route edges="-4588647 -917450542 917450543"/>
    </vehicle>
    <vehicle id="veh_178" type="car" depart="478">
        <route edges="-4588647 160192389"/>
    </vehicle>
    <vehicle id="veh_239" type="motorcycle" depart="480">
        <route edges="-4588647 4588647"/>
    </vehicle>
    <vehicle id="veh_240" type="motorcycle" depart="488">
        <route edges="-4588647 4588647"/>
    </vehicle>
    <vehicle id="veh_179" type="car" depart="489">
        <route edges="-4588647 -917450542 1174874706"/>
    </vehicle>
    <vehicle id="jeepney_31" type="traditional_jeepney" depart="491">
        <route edges="1112806233 4588647"/>
    </vehicle>
    <vehicle id="veh_296" type="bicycle" depart="492">
        <route edges="-917450542 917450543"/>
    </vehicle>
    <vehicle id="veh_180" type="car" depart="495">
        <route edges="-4588647 160192389"/>
    </vehicle>
    <vehicle id="veh_241" type="motorcycle" depart="495">
        <route edges="1112806233 160192389"/>
    </vehicle>
    <vehicle id="veh_181" type="car" depart="497">
        <route edges="-917450542 1174874706"/>
    </vehicle>
    <vehicle id="veh_242" type="motorcycle" depart="499">
        <route edges="-917450542 1174874706"/>
    </vehicle>
    <vehicle id="veh_272" type="truck" depart="499">
        <route edges="1112806233 160192389"/>
    </vehicle>
    <vehicle id="veh_243" type="motorcycle" depart="500">
        <route edges="-917450542 917450543"/>
    </vehicle>
    <vehicle id="veh_182" type="car" depart="504">
        <route edges="-917450542 1174874706"/>
    </vehicle>
    <vehicle id="veh_244" type="motorcycle" depart="505">
        <route edges="1112806233 160192389"/>
    </vehicle>
    <vehicle id="veh_245" type="motorcycle" depart="510">
        <route edges="136822578 1174874706"/>
    </vehicle>