<?xml version="1.0" ?>
<routes xmlns:xsi="http://www.w3.org/2001/XMLSchema-instance" xsi:noNamespaceSchemaLocation="http://sumo.dlr.de/xsd/routes_file.xsd">
    <vehicle id="veh_0" type="car" depart="8">
        <route edges="-4588647 160192389"/>
    </vehicle>
    <vehicle id="veh_109" type="motorcycle" depart="16">
        <route edges="1112806233 4588647 -4588647 -917450542 1174874706"/>
    </vehicle>
    <vehicle id="veh_1" type="car" depart="18">
        <route edges="775437708 917450543"/>
    </vehicle>
    <vehicle id="veh_2" type="car" depart="27">
        <route edges="1112806233 160192389"/>
    </vehicle>
    <vehicle id="veh_3" type="car" depart="29">
        <route edges="136822578 917450543"/>
    </vehicle>
    <vehicle id="veh_110" type="motorcycle" depart="32">
        <route edges="4588647 -4588647 -917450542"/>
    </vehicle>
    <vehicle id="veh_4" type="car" depart="37">
        <route edges="1112806233 4588647 -4588647 -917450542 917450543"/>
    </vehicle>
    <vehicle id="veh_159" type="truck" depart="39">
        <route edges="-4588647 -917450542 1174874706"/>
    </vehicle>
    <vehicle id="veh_5" type="car" depart="43">
        <route edges="-917450542 917450543"/>
    </vehicle>
    <vehicle id="veh_6" type="car" depart="51">
        <route edges="-4588647 -917450542 1174874706"/>
    </vehicle>
    <vehicle id="veh_111" type="motorcycle" depart="56">
        <route edges="1112806233 4588647"/>
    </vehicle>
    <vehicle id="veh_7" type="car" depart="60">
        <route edges="4588647 -4588647 -917450542 1174874706"/>
    </vehicle>
    <vehicle id="veh_8" type="car" depart="66">
        <route edges="4588647 -4588647 160192389"/>
    </vehicle>
    <vehicle id="veh_112" type="motorcycle" depart="68">
        <route edges="-4588647 -917450542 917450543"/>
    </vehicle>
    <vehicle id="jeepney_0" type="traditional_jeepney" depart="70">
        <route edges="1112806233 4588647"/>
    </vehicle>
    <vehicle id="veh_9" type="car" depart="75">
        <route edges="-4588647 -917450542 1174874706"/>
    </vehicle>
    <vehicle id="veh_10" type="car" depart="76">
        <route edges="-917450542 1174874706"/>
    </vehicle>
    <vehicle id="veh_11" type="car" depart="84">
        <route edges="136822578 1174874706"/>
    </vehicle>
    <vehicle id="veh_100" type="bicycle" depart="85">
        <route edges="-917450542 1174874706"/>
    </vehicle>
    <vehicle id="veh_160" type="truck" depart="86">
        <route edges="-4588647 -917450542 917450543"/>
    </vehicle>
    <vehicle id="veh_113" type="motorcycle" depart="87">
        <route edges="4588647 -4588647 -917450542 1174874706"/>
    </vehicle>
    <vehicle id="veh_12" type="car" depart="92">
        <route edges="-4588647 -917450542 1174874706"/>
    </vehicle>
    <vehicle id="modernjeepney_0" type="modern_jeepney" depart="94">
        <route edges="1112806233 4588647"/>
    </vehicle>
    <vehicle id="veh_13" type="car" depart="104">
        <route edges="-917450542 1174874706"/>
    </vehicle>
    <vehicle id="veh_114" type="motorcycle" depart="105">
        <route edges="1112806233 160192389"/>
    </vehicle>
    <vehicle id="veh_14" type="car" depart="119">
        <route edges="4588647 -4588647 160192389"/>
    </vehicle>
    <vehicle id="veh_115" type="motorcycle" depart="125">
        <route edges="-917450542 1174874706"/>
    </vehicle>
    <vehicle id="veh_15" type="car" depart="127">
        <route edges="1112806233 4588647 -4588647 -917450542 1174874706"/>
    </vehicle>
    <vehicle id="veh_161" type="truck" depart="129">
        <route edges="4588647 -4588647 -917450542"/>
    </vehicle>
    <vehicle id="jeepney_1" type="traditional_jeepney" depart="132">
        <route edges="-4588647 -917450542 1174874706"/>
    </vehicle>
    <vehicle id="veh_16" type="car" depart="133">
        <route edges="1174874706"/>
    </vehicle>
    <vehicle id="veh_17" type="car" depart="144">
        <route edges="136822578 917450542 4588647"/>
    </vehicle>
    <vehicle id="veh_116" type="motorcycle" depart="145">
        <route edges="1112806233 160192389"/>
    </vehicle>
    <vehicle id="veh_18" type="car" depart="152">
        <route edges="-4588647 -917450542 1174874706"/>
    </vehicle>
    <vehicle id="veh_117" type="motorcycle" depart="156">
        <route edges="4588647 -4588647 160192389"/>
    </vehicle>
    <vehicle id="veh_19" type="car" depart="159">
        <route edges="-917450542 917450543"/>
    </vehicle>
    <vehicle id="veh_118" type="motorcycle" depart="166">
        <route edges="4588647 -4588647 -917450542 1174874706"/>
    </vehicle>
    <vehicle id="veh_20" type="car" depart="169">
        <route edges="1112806233 4588647 -4588647 -917450542"/>
    </vehicle>
    <vehicle id="veh_162" type="truck" depart="176">
        <route edges="-4588647 4588647"/>
    </vehicle>
    <vehicle id="veh_179" type="bus" depart="177">
        <route edges="1112806233 4588647 -4588647 -917450542 1174874706"/>
    </vehicle>
    <vehicle id="veh_101" type="bicycle" depart="178">
        <route edges="4588647 -4588647 -917450542"/>
    </vehicle>
    <vehicle id="veh_21" type="car" depart="183">
        <route edges="-917450542 1174874706"/>
    </vehicle>
    <vehicle id="veh_119" type="motorcycle" depart="188">
        <route edges="-4588647 -917450542 1174874706"/>
    </vehicle>
    <vehicle id="jeepney_2" type="traditional_jeepney" depart="188">
        <route edges="1112806233 4588647"/>
    </vehicle>
    <vehicle id="veh_22" type="car" depart="190">
        <route edges="1112806233 4588647"/>
    </vehicle>
    <vehicle id="modernjeepney_1" type="modern_jeepney" depart="191">
        <route edges="-4588647 -917450542 1174874706"/>
    </vehicle>
    <vehicle id="veh_120" type="motorcycle" depart="199">
        <route edges="136822578 1174874706"/>
    </vehicle>
    <vehicle id="veh_23" type="car" depart="200">
        <route edges="-917450542 917450543"/>
    </vehicle>
    <vehicle id="veh_24" type="car" depart="208">
        <route edges="136822578 917450542 4588647 -4588647"/>
    </vehicle>
    <vehicle id="veh_25" type="car" depart="217">
        <route edges="136822578 917450542 4588647"/>
    </vehicle>
    <vehicle id="veh_121" type="motorcycle" depart="217">
        <route edges="-4588647 4588647"/>
    </vehicle>
    <vehicle id="veh_163" type="truck" depart="221">
        <route edges="1174874706"/>
    </vehicle>
    <vehicle id="veh_26" type="car" depart="222">
        <route edges="-4588647 -917450542 1174874706"/>
    </vehicle>
    <vehicle id="veh_122" type="motorcycle" depart="226">
        <route edges="136822578 917450542 4588647 -4588647"/>
    </vehicle>
    <vehicle id="veh_27" type="car" depart="230">
        <route edges="4588647 -4588647 -917450542 1174874706"/>
    </vehicle>
    <vehicle id="jeepney_3" type="traditional_jeepney" depart="243">
        <route edges="1112806233 4588647"/>
    </vehicle>
    <vehicle id="veh_28" type="car" depart="246">
        <route edges="-4588647 160192389"/>
    </vehicle>
    <vehicle id="veh_123" type="motorcycle" depart="247">
        <route edges="136822578 917450543"/>
    </vehicle>
    <vehicle id="veh_164" type="truck" depart="254">
        <route edges="136822578 917450543"/>
    </vehicle>
    <vehicle id="veh_29" type="car" depart="256">
        <route edges="136822578 917450542 4588647 -4588647"/>
    </vehicle>
    <vehicle id="veh_30" type="car" depart="261">
        <route edges="4588647 -4588647 -917450542 1174874706"/>
    </vehicle>
    <vehicle id="veh_124" type="motorcycle" depart="263">
        <route edges="-4588647 4588647"/>
    </vehicle>
    <vehicle id="veh_31" type="car" depart="269">
        <route edges="1174874706"/>
    </vehicle>
    <vehicle id="veh_32" type="car" depart="275">
        <route edges="136822578 917450542 -917450542"/>
    </vehicle>
    <vehicle id="modernjeepney_2" type="modern_jeepney" depart="276">
        <route edges="-4588647 -917450542 1174874706"/>
    </vehicle>
    <vehicle id="veh_125" type="motorcycle" depart="280">
        <route edges="1112806233 4588647 -4588647 -917450542"/>
    </vehicle>
    <vehicle id="veh_33" type="car" depart="282">
        <route edges="-4588647 -917450542 917450543"/>
    </vehicle>
    <vehicle id="veh_102" type="bicycle" depart="285">
        <route edges="-917450542 1174874706"/>
    </vehicle>
    <vehicle id="veh_165" type="truck" depart="287">
        <route edges="136822578 1174874706"/>
    </vehicle>
    <vehicle id="veh_34" type="car" depart="293">
        <route edges="775437708 917450543"/>
    </vehicle>
    <vehicle id="jeepney_4" type="traditional_jeepney" depart="294">
        <route edges="-4588647 -917450542 1174874706"/>
    </vehicle>
    <vehicle id="veh_126" type="motorcycle" depart="298">
        <route edges="1112806233 4588647"/>
    </vehicle>
    <vehicle id="veh_35" type="car" depart="299">
        <route edges="1112806233 4588647 -4588647 -917450542 1174874706"/>
    </vehicle>
    <vehicle id="veh_36" type="car" depart="310">
        <route edges="-4588647 -917450542"/>
    </vehicle>
    <vehicle id="veh_127" type="motorcycle" depart="313">
        <route edges="136822578 1174874706"/>
    </vehicle>
    <vehicle id="veh_37" type="car" depart="318">
        <route edges="-4588647 -917450542 1174874706"/>
    </vehicle>
    <vehicle id="veh_38" type="car" depart="326">
        <route edges="136822578 1174874706"/>
    </vehicle>
    <vehicle id="veh_128" type="motorcycle" depart="335">
        <route edges="-4588647 160192389"/>
    </vehicle>
    <vehicle id="veh_39" type="car" depart="336">
        <route edges="136822578 917450542 160192389"/>
    </vehicle>
    <vehicle id="veh_40" type="car" depart="345">
        <route edges="1112806233 4588647 -4588647 -917450542"/>
    </vehicle>
    <vehicle id="veh_166" type="truck" depart="346">
        <route edges="136822578 917450542 160192389"/>
    </vehicle>
    <vehicle id="modernjeepney_3" type="modern_jeepney" depart="350">
        <route edges="1112806233 4588647"/>
    </vehicle>
    <vehicle id="veh_41" type="car" depart="351">
        <route edges="1112806233 4588647 -4588647 -917450542 1174874706"/>
    </vehicle>
    <vehicle id="veh_129" type="motorcycle" depart="351">
        <route edges="4588647 -4588647 -917450542 1174874706"/>
    </vehicle>
    <vehicle id="veh_42" type="car" depart="357">
        <route edges="-4588647 -917450542 1174874706"/>
    </vehicle>
    <vehicle id="veh_43" type="car" depart="363">
        <route edges="-917450542 1174874706"/>
    </vehicle>
    <vehicle id="veh_130" type="motorcycle" depart="364">
        <route edges="-4588647 -917450542 1174874706"/>
    </vehicle>
    <vehicle id="veh_180" type="bus" depart="370">
        <route edges="1112806233 4588647 -4588647"/>
    </vehicle>
    <vehicle id="jeepney_5" type="traditional_jeepney" depart="370">
        <route edges="-4588647 -917450542 1174874706"/>
    </vehicle>
    <vehicle id="veh_103" type="bicycle" depart="372">
        <route edges="4588647 -4588647 -917450542 1174874706"/>
    </vehicle>
    <vehicle id="veh_44" type="car" depart="375">
        <route edges="-917450542 917450543"/>
    </vehicle>
    <vehicle id="veh_131" type="motorcycle" depart="379">
        <route edges="1112806233 4588647 -4588647 -917450542 917450543"/>
    </vehicle>
    <vehicle id="veh_45" type="car" depart="385">
        <route edges="136822578 1174874706"/>
    </vehicle>
    <vehicle id="veh_46" type="car" depart="394">
        <route edges="775437708 917450543"/>
    </vehicle>
    <vehicle id="veh_132" type="motorcycle" depart="396">
        <route edges="-4588647 -917450542 1174874706"/>
    </vehicle>
    <vehicle id="veh_167" type="truck" depart="397">
        <route edges="775437708 917450543"/>
    </vehicle>
    <vehicle id="veh_47" type="car" depart="404">
        <route edges="136822578 1174874706"/>
    </vehicle>
    <vehicle id="veh_48" type="car" depart="412">
        <route edges="4588647 -4588647"/>
    </vehicle>
    <vehicle id="veh_133" type="motorcycle" depart="416">
        <route edges="-4588647 -917450542 1174874706"/>
    </vehicle>
    <vehicle id="veh_49" type="car" depart="423">
        <route edges="-917450542 1174874706"/>
    </vehicle>
    <vehicle id="modernjeepney_4" type="modern_jeepney" depart="430">
        <route edges="-4588647 -917450542 1174874706"/>
    </vehicle>
    <vehicle id="veh_50" type="car" depart="432">
        <route edges="4588647 -4588647 160192389"/>
    </vehicle>
    <vehicle id="veh_134" type="motorcycle" depart="435">
        <route edges="1112806233 4588647 -4588647 -917450542 1174874706"/>
    </vehicle>
    <vehicle id="jeepney_6" type="traditional_jeepney" depart="437">
        <route edges="-4588647 -917450542 1174874706"/>
    </vehicle>
    <vehicle id="veh_51" type="car" depart="438">
        <route edges="1112806233 4588647 -4588647 -917450542 1174874706"/>
    </vehicle>
    <vehicle id="veh_168" type="truck" depart="438">
        <route edges="1112806233 4588647 -4588647 -917450542 917450543"/>
    </vehicle>
    <vehicle id="veh_52" type="car" depart="447">
        <route edges="1112806233 4588647 -4588647 -917450542 1174874706"/>
    </vehicle>
    <vehicle id="veh_135" type="motorcycle" depart="450">
        <route edges="1174874706"/>
    </vehicle>
    <vehicle id="veh_53" type="car" depart="454">
        <route edges="-4588647 -917450542"/>
    </vehicle>
    <vehicle id="veh_104" type="bicycle" depart="459">
        <route edges="136822578 917450542 4588647 -4588647"/>
    </vehicle>
    <vehicle id="veh_54" type="car" depart="462">
        <route edges="-4588647 4588647"/>
    </vehicle>
    <vehicle id="veh_136" type="motorcycle" depart="471">
        <route edges="-4588647 160192389"/>
    </vehicle>
    <vehicle id="veh_55" type="car" depart="473">
        <route edges="136822578 917450542 -917450542"/>
    </vehicle>
    <vehicle id="veh_56" type="car" depart="484">
        <route edges="1112806233 4588647 -4588647 -917450542 1174874706"/>
    </vehicle>
    <vehicle id="veh_169" type="truck" depart="484">
        <route edges="4588647 -4588647 -917450542 917450543"/>
    </vehicle>
    <vehicle id="veh_137" type="motorcycle" depart="490">
        <route edges="-4588647 -917450542"/>
    </vehicle>
    <vehicle id="veh_57" type="car" depart="493">
        <route edges="4588647 -4588647 -917450542"/>
    </vehicle>
    <vehicle id="veh_58" type="car" depart="499">
        <route edges="4588647 -4588647 -917450542 1174874706"/>
    </vehicle>
    <vehicle id="jeepney_7" type="traditional_jeepney" depart="499">
        <route edges="-4588647 -917450542 1174874706"/>
    </vehicle>
    <vehicle id="veh_59" type="car" depart="506">
        <route edges="775437708 917450543"/>
    </vehicle>
    <vehicle id="veh_138" type="motorcycle" depart="506">
        <route edges="1112806233 160192389"/>
    </vehicle>
    <vehicle id="veh_60" type="car" depart="515">
        <route edges="-4588647 -917450542 1174874706"/>
    </vehicle>
    <vehicle id="veh_139" type="motorcycle" depart="521">
        <route edges="-917450542 1174874706"/>
    </vehicle>
    <vehicle id="veh_61" type="car" depart="523">
        <route edges="1112806233 4588647 -4588647 -917450542"/>
    </vehicle>
    <vehicle id="modernjeepney_5" type="modern_jeepney" depart="525">
        <route edges="-4588647 -917450542 1174874706"/>
    </vehicle>
    <vehicle id="veh_170" type="truck" depart="531">
        <route edges="1112806233 4588647 -4588647 -917450542 1174874706"/>
    </vehicle>
    <vehicle id="veh_62" type="car" depart="534">
        <route edges="136822578 917450543"/>
    </vehicle>
    <vehicle id="veh_140" type="motorcycle" depart="536">
        <route edges="1112806233 160192389"/>
    </vehicle>
    <vehicle id="veh_181" type="bus" depart="538">
        <route edges="4588647 -4588647 -917450542 917450543"/>
    </vehicle>
    <vehicle id="veh_63" type="car" depart="543">
        <route edges="4588647 -4588647 -917450542 1174874706"/>
    </vehicle>
    <vehicle id="veh_105" type="bicycle" depart="548">
        <route edges="-917450542 917450543"/>
    </vehicle>
    <vehicle id="veh_141" type="motorcycle" depart="549">
        <route edges="4588647 -4588647 -917450542 1174874706"/>
    </vehicle>
    <vehicle id="veh_64" type="car" depart="555">
        <route edges="4588647 -4588647 -917450542 1174874706"/>
    </vehicle>
    <vehicle id="veh_65" type="car" depart="563">
        <route edges="1112806233 4588647 -4588647 -917450542 917450543"/>
    </vehicle>
    <vehicle id="jeepney_8" type="traditional_jeepney" depart="563">
        <route edges="-4588647 -917450542 1174874706"/>
    </vehicle>
    <vehicle id="veh_142" type="motorcycle" depart="567">
        <route edges="4588647 -4588647"/>
    </vehicle>
    <vehicle id="veh_66" type="car" depart="572">
        <route edges="136822578 917450542 -917450542"/>
    </vehicle>
    <vehicle id="veh_171" type="truck" depart="576">
        <route edges="136822578 917450542 160192389"/>
    </vehicle>
    <vehicle id="veh_67" type="car" depart="578">
        <route edges="-917450542 917450543"/>
    </vehicle>
    <vehicle id="veh_68" type="car" depart="585">
        <route edges="-917450542 917450543"/>
    </vehicle>
    <vehicle id="veh_143" type="motorcycle" depart="589">
        <route edges="136822578 917450542 160192389"/>
    </vehicle>
    <vehicle id="veh_69" type="car" depart="594">
        <route edges="4588647 -4588647 -917450542 917450543"/>
    </vehicle>
    <vehicle id="veh_70" type="car" depart="598">
        <route edges="4588647 -4588647 160192389"/>
    </vehicle>
    <vehicle id="veh_144" type="motorcycle" depart="608">
        <route edges="136822578 1174874706"/>
    </vehicle>
    <vehicle id="veh_71" type="car" depart="611">
        <route edges="1112806233 4588647 -4588647 -917450542 917450543"/>
    </vehicle>
    <vehicle id="veh_72" type="car" depart="618">
        <route edges="-917450542 1174874706"/>
    </vehicle>
    <vehicle id="modernjeepney_6" type="modern_jeepney" depart="619">
        <route edges="-4588647 -917450542 1174874706"/>
    </vehicle>
    <vehicle id="veh_172" type="truck" depart="621">
        <route edges="4588647 -4588647 -917450542"/>
    </vehicle>
    <vehicle id="veh_145" type="motorcycle" depart="623">
        <route edges="-4588647 4588647"/>
    </vehicle>
    <vehicle id="jeepney_9" type="traditional_jeepney" depart="623">
        <route edges="1112806233 4588647"/>
    </vehicle>
    <vehicle id="veh_73" type="car" depart="629">
        <route edges="136822578 1174874706"/>
    </vehicle>
    <vehicle id="veh_74" type="car" depart="635">
        <route edges="-4588647 160192389"/>
    </vehicle>
    <vehicle id="veh_146" type="motorcycle" depart="637">
        <route edges="4588647 -4588647 -917450542 1174874706"/>
    </vehicle>
    <vehicle id="veh_75" type="car" depart="640">
        <route edges="-4588647 -917450542 1174874706"/>
    </vehicle>
    <vehicle id="veh_76" type="car" depart="645">
        <route edges="136822578 917450542 160192389"/>
    </vehicle>
    <vehicle id="veh_106" type="bicycle" depart="646">
        <route edges="136822578 917450543"/>
    </vehicle>
    <vehicle id="veh_77" type="car" depart="651">
        <route edges="1112806233 160192389"/>
    </vehicle>
    <vehicle id="veh_173" type="truck" depart="651">
        <route edges="-4588647 -917450542 1174874706"/>
    </vehicle>
    <vehicle id="veh_147" type="motorcycle" depart="659">
        <route edges="-4588647 -917450542 1174874706"/>
    </vehicle>
    <vehicle id="veh_78" type="car" depart="660">
        <route edges="-4588647 -917450542 1174874706"/>
    </vehicle>
    <vehicle id="veh_79" type="car" depart="669">
        <route edges="4588647 -4588647 -917450542 1174874706"/>
    </vehicle>
    <vehicle id="veh_80" type="car" depart="677">
        <route edges="1112806233 4588647 -4588647 -917450542 917450543"/>
    </vehicle>
    <vehicle id="veh_148" type="motorcycle" depart="679">
        <route edges="4588647 -4588647 -917450542 1174874706"/>
    </vehicle>
    <vehicle id="veh_81" type="car" depart="685">
        <route edges="1112806233 4588647 -4588647 -917450542 917450543"/>
    </vehicle>
    <vehicle id="jeepney_10" type="traditional_jeepney" depart="688">
        <route edges="-4588647 -917450542 1174874706"/>
    </vehicle>
    <vehicle id="veh_82" type="car" depart="698">
        <route edges="775437708 917450543"/>
    </vehicle>
    <vehicle id="modernjeepney_7" type="modern_jeepney" depart="698">
        <route edges="-4588647 -917450542 1174874706"/>
    </vehicle>
    <vehicle id="veh_149" type="motorcycle" depart="699">
        <route edges="-4588647 -917450542 917450543"/>
    </vehicle>
    <vehicle id="veh_83" type="car" depart="708">
        <route edges="-4588647 -917450542 1174874706"/>
    </vehicle>
    <vehicle id="veh_174" type="truck" depart="711">
        <route edges="-4588647 -917450542 1174874706"/>
    </vehicle>
    <vehicle id="veh_84" type="car" depart="716">
        <route edges="-917450542 917450543"/>
    </vehicle>
    <vehicle id="veh_150" type="motorcycle" depart="716">
        <route edges="1174874706"/>
    </vehicle>
    <vehicle id="veh_85" type="car" depart="723">
        <route edges="1112806233 4588647 -4588647 -917450542 1174874706"/>
    </vehicle>
    <vehicle id="veh_107" type="bicycle" depart="726">
        <route edges="1112806233 4588647 -4588647"/>
    </vehicle>
    <vehicle id="veh_182" type="bus" depart="731">
        <route edges="-4588647 -917450542"/>
    </vehicle>
    <vehicle id="veh_86" type="car" depart="735">
        <route edges="136822578 1174874706"/>
    </vehicle>
    <vehicle id="veh_151" type="motorcycle" depart="737">
        <route edges="-4588647 -917450542"/>
    </vehicle>
    <vehicle id="veh_87" type="car" depart="744">
        <route edges="136822578 1174874706"/>
    </vehicle>
    <vehicle id="veh_175" type="truck" depart="747">
        <route edges="1112806233 4588647 -4588647 -917450542 1174874706"/>
    </vehicle>
    <vehicle id="veh_88" type="car" depart="751">
        <route edges="1112806233 4588647 -4588647 -917450542 1174874706"/>
    </vehicle>
    <vehicle id="jeepney_11" type="traditional_jeepney" depart="752">
        <route edges="-4588647 -917450542 1174874706"/>
    </vehicle>
    <vehicle id="veh_152" type="motorcycle" depart="759">
        <route edges="136822578 917450542 -917450542"/>
    </vehicle>
    <vehicle id="veh_89" type="car" depart="767">
        <route edges="1174874706"/>
    </vehicle>
    <vehicle id="veh_90" type="car" depart="775">
        <route edges="-917450542 1174874706"/>
    </vehicle>
    <vehicle id="veh_153" type="motorcycle" depart="779">
        <route edges="-4588647 160192389"/>
    </vehicle>
    <vehicle id="veh_91" type="car" depart="785">
        <route edges="136822578 917450542 -917450542"/>
    </vehicle>
    <vehicle id="veh_92" type="car" depart="793">
        <route edges="-4588647 -917450542 917450543"/>
    </vehicle>
    <vehicle id="modernjeepney_8" type="modern_jeepney" depart="793">
        <route edges="1112806233 4588647"/>
    </vehicle>
    <vehicle id="veh_176" type="truck" depart="794">
        <route edges="-4588647 -917450542 1174874706"/>
    </vehicle>
    <vehicle id="veh_154" type="motorcycle" depart="796">
        <route edges="4588647 -4588647 -917450542 1174874706"/>
    </vehicle>
    <vehicle id="veh_93" type="car" depart="802">
        <route edges="136822578 917450542 -917450542"/>
    </vehicle>
    <vehicle id="jeepney_12" type="traditional_jeepney" depart="803">
        <route edges="-4588647 -917450542 1174874706"/>
    </vehicle>
    <vehicle id="veh_94" type="car" depart="811">
        <route edges="1112806233 4588647 -4588647 -917450542"/>
    </vehicle>
    <vehicle id="veh_155" type="motorcycle" depart="815">
        <route edges="1174874706"/>
    </vehicle>
    <vehicle id="veh_95" type="car" depart="819">
        <route edges="136822578 1174874706"/>
    </vehicle>
    <vehicle id="veh_96" type="car" depart="825">
        <route edges="1112806233 4588647 -4588647 -917450542"/>
    </vehicle>
    <vehicle id="veh_108" type="bicycle" depart="826">
        <route edges="-4588647 160192389"/>
    </vehicle>
    <vehicle id="veh_177" type="truck" depart="833">
        <route edges="136822578 1174874706"/>
    </vehicle>
    <vehicle id="veh_156" type="motorcycle" depart="839">
        <route edges="1112806233 4588647"/>
    </vehicle>
    <vehicle id="veh_97" type="car" depart="842">
        <route edges="1112806233 4588647 -4588647 -917450542"/>
    </vehicle>
    <vehicle id="veh_98" type="car" depart="850">
        <route edges="136822578 917450543"/>
    </vehicle>
    <vehicle id="veh_157" type="motorcycle" depart="852">
        <route edges="-4588647 -917450542 917450543"/>
    </vehicle>
    <vehicle id="jeepney_13" type="traditional_jeepney" depart="852">
        <route edges="1112806233 4588647"/>
    </vehicle>
    <vehicle id="veh_99" type="car" depart="856">
        <route edges="4588647 -4588647 -917450542"/>
    </vehicle>
    <vehicle id="veh_158" type="motorcycle" depart="868">
        <route edges="1112806233 4588647 -4588647 -917450542 1174874706"/>
    </vehicle>
    <vehicle id="veh_178" type="truck" depart="872">
        <route edges="4588647 -4588647 160192389"/>
    </vehicle>
    <vehicle id="modernjeepney_9" type="modern_jeepney" depart="884">
        <route edges="-4588647 -917450542 1174874706"/>
    </vehicle>
    <vehicle id="veh_207" type="car" depart="912">
        <route edges="1174874706"/>
    </vehicle>
    <vehicle id="veh_208" type="car" depart="919">
        <route edges="1112806233 4588647"/>
    </vehicle>
    <vehicle id="veh_209" type="car" depart="927">
        <route edges="4588647 -4588647"/>
    </vehicle>
    <vehicle id="veh_294" type="motorcycle" depart="927">
        <route edges="775437708 917450543"/>
    </vehicle>
    <vehicle id="veh_210" type="car" depart="937">
        <route edges="-4588647 -917450542 917450543"/>
    </vehicle>
    <vehicle id="veh_295" type="motorcycle" depart="948">
        <route edges="4588647 -4588647 -917450542 1174874706"/>
    </vehicle>
    <vehicle id="veh_211" type="car" depart="952">
        <route edges="-917450542 1174874706"/>
    </vehicle>
    <vehicle id="veh_331" type="truck" depart="955">
        <route edges="136822578 917450542 160192389"/>
    </vehicle>
    <vehicle id="veh_212" type="car" depart="961">
        <route edges="775437708 917450543"/>
    </vehicle>
    <vehicle id="veh_296" type="motorcycle" depart="967">
        <route edges="136822578 917450542 4588647 -4588647"/>
    </vehicle>
    <vehicle id="veh_213" type="car" depart="970">
        <route edges="4588647 -4588647 -917450542"/>
    </vehicle>
    <vehicle id="jeepney_14" type="traditional_jeepney" depart="970">
        <route edges="1112806233 4588647"/>
    </vehicle>
    <vehicle id="veh_214" type="car" depart="982">
        <route edges="-4588647 160192389"/>
    </vehicle>
    <vehicle id="veh_297" type="motorcycle" depart="988">
        <route edges="4588647 -4588647 -917450542 1174874706"/>
    </vehicle>
    <vehicle id="veh_215" type="car" depart="993">
        <route edges="136822578 917450542 4588647"/>
    </vehicle>
    <vehicle id="veh_216" type="car" depart="1007">
        <route edges="136822578 917450542 4588647 -4588647"/>
    </vehicle>
    <vehicle id="modernjeepney_10" type="modern_jeepney" depart="1011">
        <route edges="-4588647 -917450542 1174874706"/>
    </vehicle>
    <vehicle id="veh_332" type="truck" depart="1012">
        <route edges="-4588647 -917450542 1174874706"/>
    </vehicle>
    <vehicle id="veh_217" type="car" depart="1013">
        <route edges="136822578 917450542 -917450542"/>
    </vehicle>
    <vehicle id="veh_298" type="motorcycle" depart="1015">
        <route edges="1112806233 4588647 -4588647"/>
    </vehicle>
    <vehicle id="veh_218" type="car" depart="1024">
        <route edges="-4588647 4588647"/>
    </vehicle>
    <vehicle id="veh_287" type="bicycle" depart="1029">
        <route edges="1112806233 4588647 -4588647 -917450542"/>
    </vehicle>
    <vehicle id="veh_219" type="car" depart="1035">
        <route edges="136822578 917450542 4588647 -4588647"/>
    </vehicle>
    <vehicle id="veh_299" type="motorcycle" depart="1037">
        <route edges="4588647 -4588647 160192389"/>
    </vehicle>
    <vehicle id="jeepney_15" type="traditional_jeepney" depart="1040">
        <route edges="1112806233 4588647"/>
    </vehicle>
    <vehicle id="veh_220" type="car" depart="1044">
        <route edges="1112806233 4588647 -4588647"/>
    </vehicle>
    <vehicle id="veh_221" type="car" depart="1052">
        <route edges="-4588647 -917450542"/>
    </vehicle>
    <vehicle id="veh_222" type="car" depart="1060">
        <route edges="1112806233 4588647 -4588647 -917450542 1174874706"/>
    </vehicle>
    <vehicle id="veh_333" type="truck" depart="1066">
        <route edges="-4588647 -917450542 917450543"/>
    </vehicle>
    <vehicle id="veh_223" type="car" depart="1068">
        <route edges="4588647 -4588647 -917450542 1174874706"/>
    </vehicle>
    <vehicle id="veh_300" type="motorcycle" depart="1070">
        <route edges="4588647 -4588647 -917450542 917450543"/>
    </vehicle>
    <vehicle id="veh_224" type="car" depart="1072">
        <route edges="1112806233 4588647 -4588647 -917450542 917450543"/>
    </vehicle>
    <vehicle id="veh_346" type="bus" depart="1077">
        <route edges="775437708 917450543"/>
    </vehicle>
    <vehicle id="veh_225" type="car" depart="1087">
        <route edges="-917450542 1174874706"/>
    </vehicle>
    <vehicle id="veh_301" type="motorcycle" depart="1093">
        <route edges="1174874706"/>
    </vehicle>