<?xml version="1.0" ?>
<routes xmlns:xsi="http://www.w3.org/2001/XMLSchema-instance" xsi:noNamespaceSchemaLocation="http://sumo.dlr.de/xsd/routes_file.xsd">
    <vehicle id="veh_0" type="car" depart="8">
        <route edges="136822578 917450542 4588647"/>
    </vehicle>
    <vehicle id="veh_1" type="car" depart="16">
        <route edges="-4588647 -917450542"/>
    </vehicle>
    <vehicle id="veh_2" type="car" depart="25">
        <route edges="775437708 917450543"/>
    </vehicle>
    <vehicle id="veh_110" type="motorcycle" depart="26">
        <route edges="-917450542 917450543"/>
    </vehicle>
    <vehicle id="veh_3" type="car" depart="34">
        <route edges="4588647 -4588647 160192389"/>
    </vehicle>
    <vehicle id="veh_4" type="car" depart="40">
        <route edges="1112806233 4588647 -4588647 -917450542 917450543"/>
    </vehicle>
    <vehicle id="veh_111" type="motorcycle" depart="44">
        <route edges="4588647 -4588647 -917450542 1174874706"/>
    </vehicle>
    <vehicle id="veh_160" type="truck" depart="45">
        <route edges="1112806233 4588647 -4588647 -917450542 917450543"/>
    </vehicle>
    <vehicle id="jeepney_0" type="traditional_jeepney" depart="48">
        <route edges="-4588647 -917450542 1174874706"/>
    </vehicle>
    <vehicle id="veh_5" type="car" depart="52">
        <route edges="136822578 917450542 -917450542"/>
    </vehicle>
    <vehicle id="veh_112" type="motorcycle" depart="59">
        <route edges="136822578 1174874706"/>
    </vehicle>
    <vehicle id="veh_6" type="car" depart="64">
        <route edges="4588647 -4588647 160192389"/>
    </vehicle>
    <vehicle id="veh_7" type="car" depart="74">
        <route edges="1112806233 4588647 -4588647 -917450542 917450543"/>
    </vehicle>
    <vehicle id="veh_8" type="car" depart="82">
        <route edges="-4588647 -917450542"/>
    </vehicle>
    <vehicle id="veh_113" type="motorcycle" depart="83">
        <route edges="775437708 917450543"/>
    </vehicle>
    <vehicle id="veh_161" type="truck" depart="86">
        <route edges="-4588647 -917450542 1174874706"/>
    </vehicle>
    <vehicle id="veh_9" type="car" depart="91">
        <route edges="1112806233 4588647"/>
    </vehicle>
    <vehicle id="modernjeepney_0" type="modern_jeepney" depart="93">
        <route edges="-4588647 -917450542 1174874706"/>
    </vehicle>
    <vehicle id="veh_100" type="bicycle" depart="96">
        <route edges="136822578 917450542 4588647 -4588647"/>
    </vehicle>
    <vehicle id="veh_114" type="motorcycle" depart="97">
        <route edges="4588647 -4588647 -917450542 917450543"/>
    </vehicle>
    <vehicle id="veh_10" type="car" depart="98">
        <route edges="136822578 917450542 160192389"/>
    </vehicle>
    <vehicle id="veh_11" type="car" depart="107">
        <route edges="-917450542 917450543"/>
    </vehicle>
    <vehicle id="veh_12" type="car" depart="114">
        <route edges="-917450542 1174874706"/>
    </vehicle>
    <vehicle id="veh_115" type="motorcycle" depart="114">
        <route edges="1112806233 160192389"/>
    </vehicle>
    <vehicle id="jeepney_1" type="traditional_jeepney" depart="116">
        <route edges="1112806233 4588647"/>
    </vehicle>
    <vehicle id="veh_162" type="truck" depart="126">
        <route edges="-917450542 1174874706"/>
    </vehicle>
    <vehicle id="veh_13" type="car" depart="130">
        <route edges="4588647 -4588647 -917450542 1174874706"/>
    </vehicle>
    <vehicle id="veh_14" type="car" depart="136">
        <route edges="-4588647 4588647"/>
    </vehicle>
    <vehicle id="veh_116" type="motorcycle" depart="138">
        <route edges="136822578 1174874706"/>
    </vehicle>
    <vehicle id="veh_15" type="car" depart="145">
        <route edges="136822578 917450542 4588647"/>
    </vehicle>
    <vehicle id="veh_16" type="car" depart="155">
        <route edges="-4588647 -917450542 917450543"/>
    </vehicle>
    <vehicle id="veh_117" type="motorcycle" depart="156">
        <route edges="4588647 -4588647 160192389"/>
    </vehicle>
    <vehicle id="veh_17" type="car" depart="164">
        <route edges="136822578 917450542 4588647 -4588647"/>
    </vehicle>
    <vehicle id="veh_18" type="car" depart="172">
        <route edges="-917450542 917450543"/>
    </vehicle>
    <vehicle id="veh_118" type="motorcycle" depart="172">
        <route edges="136822578 1174874706"/>
    </vehicle>
    <vehicle id="veh_101" type="bicycle" depart="174">
        <route edges="-4588647 160192389"/>
    </vehicle>
    <vehicle id="jeepney_2" type="traditional_jeepney" depart="174">
        <route edges="1112806233 4588647"/>
    </vehicle>
    <vehicle id="veh_19" type="car" depart="177">
        <route edges="-4588647 -917450542 917450543"/>
    </vehicle>
    <vehicle id="veh_119" type="motorcycle" depart="182">
        <route edges="-4588647 4588647"/>
    </vehicle>
    <vehicle id="veh_163" type="truck" depart="186">
        <route edges="-917450542 1174874706"/>
    </vehicle>
    <vehicle id="veh_20" type="car" depart="187">
        <route edges="4588647 -4588647 -917450542 1174874706"/>
    </vehicle>
    <vehicle id="veh_179" type="bus" depart="189">
        <route edges="-4588647 -917450542 1174874706"/>
    </vehicle>
    <vehicle id="veh_120" type="motorcycle" depart="194">
        <route edges="1112806233 4588647 -4588647 -917450542 917450543"/>
    </vehicle>
    <vehicle id="modernjeepney_1" type="modern_jeepney" depart="196">
        <route edges="1112806233 4588647"/>
    </vehicle>
    <vehicle id="veh_21" type="car" depart="198">
        <route edges="-4588647 -917450542 1174874706"/>
    </vehicle>
    <vehicle id="veh_22" type="car" depart="204">
        <route edges="4588647 -4588647 160192389"/>
    </vehicle>
    <vehicle id="veh_121" type="motorcycle" depart="207">
        <route edges="1112806233 4588647"/>
    </vehicle>
    <vehicle id="veh_23" type="car" depart="215">
        <route edges="-4588647 -917450542"/>
    </vehicle>
    <vehicle id="veh_24" type="car" depart="220">
        <route edges="136822578 917450542 4588647"/>
    </vehicle>
    <vehicle id="jeepney_3" type="traditional_jeepney" depart="220">
        <route edges="1112806233 4588647"/>
    </vehicle>
    <vehicle id="veh_25" type="car" depart="228">
        <route edges="-4588647 -917450542"/>
    </vehicle>
    <vehicle id="veh_122" type="motorcycle" depart="228">
        <route edges="-4588647 -917450542 1174874706"/>
    </vehicle>
    <vehicle id="veh_26" type="car" depart="234">
        <route edges="4588647 -4588647 -917450542 1174874706"/>
    </vehicle>
    <vehicle id="veh_164" type="truck" depart="237">
        <route edges="136822578 1174874706"/>
    </vehicle>
    <vehicle id="veh_27" type="car" depart="246">
        <route edges="136822578 917450542 160192389"/>
    </vehicle>
    <vehicle id="veh_123" type="motorcycle" depart="247">
        <route edges="4588647 -4588647 160192389"/>
    </vehicle>
    <vehicle id="veh_28" type="car" depart="252">
        <route edges="775437708 917450543"/>
    </vehicle>
    <vehicle id="veh_29" type="car" depart="261">
        <route edges="-4588647 -917450542"/>
    </vehicle>
    <vehicle id="veh_102" type="bicycle" depart="261">
        <route edges="-917450542 1174874706"/>
    </vehicle>
    <vehicle id="veh_124" type="motorcycle" depart="262">
        <route edges="775437708 917450543"/>
    </vehicle>
    <vehicle id="veh_165" type="truck" depart="269">
        <route edges="136822578 917450542 4588647 -4588647"/>
    </vehicle>
    <vehicle id="veh_30" type="car" depart="270">
        <route edges="1112806233 4588647 -4588647 -917450542 1174874706"/>
    </vehicle>
    <vehicle id="modernjeepney_2" type="modern_jeepney" depart="280">
        <route edges="-4588647 -917450542 1174874706"/>
    </vehicle>
    <vehicle id="veh_31" type="car" depart="282">
        <route edges="4588647 -4588647 160192389"/>
    </vehicle>
    <vehicle id="veh_125" type="motorcycle" depart="282">
        <route edges="1112806233 4588647 -4588647 -917450542 1174874706"/>
    </vehicle>
    <vehicle id="veh_32" type="car" depart="292">
        <route edges="4588647 -4588647 160192389"/>
    </vehicle>
    <vehicle id="jeepney_4" type="traditional_jeepney" depart="296">
        <route edges="-4588647 -917450542 1174874706"/>
    </vehicle>
    <vehicle id="veh_126" type="motorcycle" depart="298">
        <route edges="1112806233 160192389"/>
    </vehicle>
    <vehicle id="veh_33" type="car" depart="301">
        <route edges="-4588647 160192389"/>
    </vehicle>
    <vehicle id="veh_34" type="car" depart="313">
        <route edges="1112806233 4588647 -4588647 -917450542 917450543"/>
    </vehicle>
    <vehicle id="veh_127" type="motorcycle" depart="313">
        <route edges="-4588647 4588647"/>
    </vehicle>
    <vehicle id="veh_35" type="car" depart="324">
        <route edges="-4588647 -917450542 1174874706"/>
    </vehicle>
    <vehicle id="veh_36" type="car" depart="326">
        <route edges="136822578 917450542 4588647 -4588647"/>
    </vehicle>
    <vehicle id="veh_166" type="truck" depart="326">
        <route edges="4588647 -4588647 -917450542 1174874706"/>
    </vehicle>
    <vehicle id="veh_128" type="motorcycle" depart="331">
        <route edges="-4588647 -917450542 1174874706"/>
    </vehicle>
    <vehicle id="veh_37" type="car" depart="339">
        <route edges="-917450542 917450543"/>
    </vehicle>
    <vehicle id="veh_38" type="car" depart="347">
        <route edges="-4588647 -917450542 1174874706"/>
    </vehicle>
    <vehicle id="veh_103" type="bicycle" depart="351">
        <route edges="4588647 -4588647 -917450542 1174874706"/>
    </vehicle>
    <vehicle id="veh_129" type="motorcycle" depart="354">
        <route edges="1112806233 4588647"/>
    </vehicle>
    <vehicle id="veh_39" type="car" depart="358">
        <route edges="1112806233 4588647 -4588647"/>
    </vehicle>
    <vehicle id="jeepney_5" type="traditional_jeepney" depart="361">
        <route edges="1112806233 4588647"/>
    </vehicle>
    <vehicle id="modernjeepney_3" type="modern_jeepney" depart="362">
        <route edges="-4588647 -917450542 1174874706"/>
    </vehicle>
    <vehicle id="veh_130" type="motorcycle" depart="364">
        <route edges="-4588647 -917450542 917450543"/>
    </vehicle>
    <vehicle id="veh_40" type="car" depart="368">
        <route edges="-4588647 -917450542 1174874706"/>
    </vehicle>
    <vehicle id="veh_167" type="truck" depart="368">
        <route edges="-4588647 160192389"/>
    </vehicle>
    <vehicle id="veh_41" type="car" depart="378">
        <route edges="4588647 -4588647 160192389"/>
    </vehicle>
    <vehicle id="veh_180" type="bus" depart="378">
        <route edges="4588647 -4588647 -917450542 1174874706"/>
    </vehicle>
    <vehicle id="veh_131" type="motorcycle" depart="383">
        <route edges="1112806233 4588647"/>
    </vehicle>
    <vehicle id="veh_42" type="car" depart="387">
        <route edges="4588647 -4588647 -917450542 1174874706"/>
    </vehicle>
    <vehicle id="veh_43" type="car" depart="390">
        <route edges="1112806233 4588647 -4588647 -917450542 1174874706"/>
    </vehicle>
    <vehicle id="veh_44" type="car" depart="399">
        <route edges="136822578 917450542 4588647 -4588647"/>
    </vehicle>
    <vehicle id="veh_132" type="motorcycle" depart="401">
        <route edges="4588647 -4588647"/>
    </vehicle>
    <vehicle id="veh_45" type="car" depart="404">
        <route edges="-4588647 4588647"/>
    </vehicle>
    <vehicle id="veh_46" type="car" depart="411">
        <route edges="-4588647 4588647"/>
    </vehicle>
    <vehicle id="veh_168" type="truck" depart="414">
        <route edges="1112806233 4588647"/>
    </vehicle>
    <vehicle id="jeepney_6" type="traditional_jeepney" depart="417">
        <route edges="1112806233 4588647"/>
    </vehicle>
    <vehicle id="veh_133" type="motorcycle" depart="419">
        <route edges="4588647 -4588647 -917450542 1174874706"/>
    </vehicle>
    <vehicle id="veh_47" type="car" depart="424">
        <route edges="4588647 -4588647 -917450542 1174874706"/>
    </vehicle>
    <vehicle id="veh_48" type="car" depart="431">
        <route edges="-4588647 -917450542"/>
    </vehicle>
    <vehicle id="veh_134" type="motorcycle" depart="436">
        <route edges="136822578 917450542 4588647 -4588647"/>
    </vehicle>
    <vehicle id="veh_49" type="car" depart="437">
        <route edges="136822578 917450542 160192389"/>
    </vehicle>
    <vehicle id="veh_104" type="bicycle" depart="442">
        <route edges="4588647 -4588647 -917450542 1174874706"/>
    </vehicle>
    <vehicle id="veh_50" type="car" depart="444">
        <route edges="1112806233 160192389"/>
    </vehicle>
    <vehicle id="veh_169" type="truck" depart="453">
        <route edges="1112806233 4588647 -4588647 -917450542 1174874706"/>
    </vehicle>
    <vehicle id="veh_51" type="car" depart="454">
        <route edges="-4588647 -917450542 1174874706"/>
    </vehicle>
    <vehicle id="modernjeepney_4" type="modern_jeepney" depart="455">
        <route edges="1112806233 4588647"/>
    </vehicle>
    <vehicle id="veh_135" type="motorcycle" depart="456">
        <route edges="1112806233 4588647 -4588647"/>
    </vehicle>
    <vehicle id="veh_52" type="car" depart="462">
        <route edges="1112806233 4588647"/>
    </vehicle>
    <vehicle id="veh_53" type="car" depart="470">
        <route edges="-4588647 -917450542 917450543"/>
    </vehicle>
    <vehicle id="veh_136" type="motorcycle" depart="472">
        <route edges="136822578 1174874706"/>
    </vehicle>
    <vehicle id="jeepney_7" type="traditional_jeepney" depart="479">
        <route edges="1112806233 4588647"/>
    </vehicle>
    <vehicle id="veh_54" type="car" depart="484">
        <route edges="1112806233 4588647 -4588647 -917450542 1174874706"/>
    </vehicle>
    <vehicle id="veh_55" type="car" depart="490">
        <route edges="136822578 917450543"/>
    </vehicle>
    <vehicle id="veh_137" type="motorcycle" depart="490">
        <route edges="4588647 -4588647 -917450542 1174874706"/>
    </vehicle>
    <vehicle id="veh_56" type="car" depart="499">
        <route edges="-917450542 1174874706"/>
    </vehicle>
    <vehicle id="veh_170" type="truck" depart="499">
        <route edges="4588647 -4588647 -917450542 1174874706"/>
    </vehicle>
    <vehicle id="veh_138" type="motorcycle" depart="507">
        <route edges="136822578 917450542 4588647 -4588647"/>
    </vehicle>
    <vehicle id="veh_57" type="car" depart="508">
        <route edges="1112806233 4588647 -4588647 -917450542 917450543"/>
    </vehicle>
    <vehicle id="veh_139" type="motorcycle" depart="522">
        <route edges="-4588647 160192389"/>
    </vehicle>
    <vehicle id="veh_58" type="car" depart="523">
        <route edges="1112806233 4588647 -4588647 -917450542 917450543"/>
    </vehicle>
    <vehicle id="jeepney_8" type="traditional_jeepney" depart="531">
        <route edges="-4588647 -917450542 1174874706"/>
    </vehicle>
    <vehicle id="veh_59" type="car" depart="532">
        <route edges="136822578 917450543"/>
    </vehicle>
    <vehicle id="veh_105" type="bicycle" depart="533">
        <route edges="1112806233 4588647 -4588647 -917450542 1174874706"/>
    </vehicle>
    <vehicle id="veh_60" type="car" depart="535">
        <route edges="4588647 -4588647 -917450542 1174874706"/>
    </vehicle>
    <vehicle id="veh_140" type="motorcycle" depart="540">
        <route edges="1112806233 160192389"/>
    </vehicle>
    <vehicle id="veh_171" type="truck" depart="542">
        <route edges="1112806233 4588647 -4588647 -917450542 1174874706"/>
    </vehicle>
    <vehicle id="veh_61" type="car" depart="547">
        <route edges="1112806233 4588647 -4588647 -917450542 1174874706"/>
    </vehicle>
    <vehicle id="modernjeepney_5" type="modern_jeepney" depart="548">
        <route edges="1112806233 4588647"/>
    </vehicle>
    <vehicle id="veh_181" type="bus" depart="549">
        <route edges="1112806233 4588647 -4588647 -917450542 1174874706"/>
    </vehicle>
    <vehicle id="veh_62" type="car" depart="558">
        <route edges="4588647 -4588647 -917450542 917450543"/>
    </vehicle>
    <vehicle id="veh_141" type="motorcycle" depart="564">
        <route edges="-4588647 160192389"/>
    </vehicle>
    <vehicle id="veh_63" type="car" depart="572">
        <route edges="-4588647 4588647"/>
    </vehicle>
    <vehicle id="veh_172" type="truck" depart="579">
        <route edges="1112806233 4588647 -4588647 -917450542"/>
    </vehicle>
    <vehicle id="veh_64" type="car" depart="581">
        <route edges="-917450542 1174874706"/>
    </vehicle>
    <vehicle id="veh_142" type="motorcycle" depart="582">
        <route edges="4588647 -4588647 -917450542 1174874706"/>
    </vehicle>
    <vehicle id="jeepney_9" type="traditional_jeepney" depart="586">
        <route edges="1112806233 4588647"/>
    </vehicle>
    <vehicle id="veh_65" type="car" depart="591">
        <route edges="136822578 1174874706"/>
    </vehicle>
    <vehicle id="veh_143" type="motorcycle" depart="598">
        <route edges="4588647 -4588647 -917450542 1174874706"/>
    </vehicle>
    <vehicle id="veh_66" type="car" depart="602">
        <route edges="136822578 917450543"/>
    </vehicle>
    <vehicle id="veh_67" type="car" depart="610">
        <route edges="4588647 -4588647 160192389"/>
    </vehicle>
    <vehicle id="veh_106" type="bicycle" depart="614">
        <route edges="4588647 -4588647 160192389"/>
    </vehicle>
    <vehicle id="veh_68" type="car" depart="616">
        <route edges="-4588647 -917450542"/>
    </vehicle>
    <vehicle id="veh_144" type="motorcycle" depart="618">
        <route edges="-4588647 160192389"/>
    </vehicle>
    <vehicle id="veh_69" type="car" depart="629">
        <route edges="136822578 917450543"/>
    </vehicle>
    <vehicle id="veh_173" type="truck" depart="638">
        <route edges="-4588647 4588647"/>
    </vehicle>
    <vehicle id="veh_145" type="motorcycle" depart="640">
        <route edges="136822578 917450542 4588647"/>
    </vehicle>
    <vehicle id="veh_70" type="car" depart="641">
        <route edges="-4588647 -917450542 1174874706"/>
    </vehicle>
    <vehicle id="jeepney_10" type="traditional_jeepney" depart="641">
        <route edges="-4588647 -917450542 1174874706"/>
    </vehicle>
    <vehicle id="veh_146" type="motorcycle" depart="651">
        <route edges="-917450542 1174874706"/>
    </vehicle>
    <vehicle id="modernjeepney_6" type="modern_jeepney" depart="655">
        <route edges="-4588647 -917450542 1174874706"/>
    </vehicle>
    <vehicle id="veh_71" type="car" depart="656">
        <route edges="-4588647 160192389"/>
    </vehicle>
    <vehicle id="veh_72" type="car" depart="667">
        <route edges="1112806233 4588647 -4588647 -917450542 917450543"/>
    </vehicle>
    <vehicle id="veh_147" type="motorcycle" depart="667">
        <route edges="4588647 -4588647 160192389"/>
    </vehicle>
    <vehicle id="veh_73" type="car" depart="674">
        <route edges="1112806233 160192389"/>
    </vehicle>
    <vehicle id="veh_148" type="motorcycle" depart="680">
        <route edges="4588647 -4588647"/>
    </vehicle>
    <vehicle id="veh_74" type="car" depart="682">
        <route edges="-4588647 -917450542 1174874706"/>
    </vehicle>
    <vehicle id="veh_75" type="car" depart="689">
        <route edges="-4588647 160192389"/>
    </vehicle>
    <vehicle id="jeepney_11" type="traditional_jeepney" depart="691">
        <route edges="1112806233 4588647"/>
    </vehicle>
    <vehicle id="veh_174" type="truck" depart="694">
        <route edges="136822578 1174874706"/>
    </vehicle>
    <vehicle id="veh_76" type="car" depart="700">
        <route edges="775437708 917450543"/>
    </vehicle>
    <vehicle id="veh_149" type="motorcycle" depart="700">
        <route edges="4588647 -4588647 -917450542 1174874706"/>
    </vehicle>
    <vehicle id="veh_77" type="car" depart="707">
        <route edges="4588647 -4588647"/>
    </vehicle>
    <vehicle id="veh_107" type="bicycle" depart="709">
        <route edges="136822578 917450542 4588647 -4588647"/>
    </vehicle>
    <vehicle id="veh_78" type="car" depart="714">
        <route edges="4588647 -4588647 160192389"/>
    </vehicle>
    <vehicle id="veh_150" type="motorcycle" depart="724">
        <route edges="1112806233 4588647 -4588647 -917450542 1174874706"/>
    </vehicle>
    <vehicle id="veh_182" type="bus" depart="726">
        <route edges="136822578 917450543"/>
    </vehicle>
    <vehicle id="veh_79" type="car" depart="727">
        <route edges="1112806233 4588647 -4588647 -917450542 1174874706"/>
    </vehicle>
    <vehicle id="veh_175" type="truck" depart="728">
        <route edges="-4588647 -917450542 1174874706"/>
    </vehicle>
    <vehicle id="veh_80" type="car" depart="734">
        <route edges="4588647 -4588647 -917450542 1174874706"/>
    </vehicle>
    <vehicle id="veh_151" type="motorcycle" depart="737">
        <route edges="1112806233 4588647 -4588647 -917450542 917450543"/>
    </vehicle>
    <vehicle id="modernjeepney_7" type="modern_jeepney" depart="739">
        <route edges="-4588647 -917450542 1174874706"/>
    </vehicle>
    <vehicle id="veh_81" type="car" depart="741">
        <route edges="-917450542 917450543"/>
    </vehicle>
    <vehicle id="veh_152" type="motorcycle" depart="748">
        <route edges="4588647 -4588647"/>
    </vehicle>
    <vehicle id="veh_82" type="car" depart="749">
        <route edges="4588647 -4588647 -917450542 1174874706"/>
    </vehicle>
    <vehicle id="veh_83" type="car" depart="757">
        <route edges="1112806233 4588647 -4588647"/>
    </vehicle>
    <vehicle id="jeepney_12" type="traditional_jeepney" depart="760">
        <route edges="1112806233 4588647"/>
    </vehicle>
    <vehicle id="veh_84" type="car" depart="769">
        <route edges="136822578 1174874706"/>
    </vehicle>
    <vehicle id="veh_153" type="motorcycle" depart="773">
        <route edges="1112806233 4588647 -4588647 -917450542"/>
    </vehicle>
    <vehicle id="veh_176" type="truck" depart="778">
        <route edges="4588647 -4588647 160192389"/>
    </vehicle>
    <vehicle id="veh_85" type="car" depart="779">
        <route edges="1112806233 4588647 -4588647"/>
    </vehicle>
    <vehicle id="veh_154" type="motorcycle" depart="789">
        <route edges="4588647 -4588647"/>
    </vehicle>
    <vehicle id="veh_86" type="car" depart="790">
        <route edges="4588647 -4588647"/>
    </vehicle>
    <vehicle id="veh_108" type="bicycle" depart="798">
        <route edges="-917450542 917450543"/>
    </vehicle>
    <vehicle id="veh_87" type="car" depart="800">
        <route edges="1112806233 160192389"/>
    </vehicle>
    <vehicle id="veh_88" type="car" depart="804">
        <route edges="4588647 -4588647"/>
    </vehicle>
    <vehicle id="veh_177" type="truck" depart="806">
        <route edges="-917450542 1174874706"/>
    </vehicle>
    <vehicle id="veh_89" type="car" depart="813">
        <route edges="4588647 -4588647 -917450542"/>
    </vehicle>
    <vehicle id="veh_155" type="motorcycle" depart="814">
        <route edges="1112806233 4588647 -4588647"/>
    </vehicle>
    <vehicle id="veh_90" type="car" depart="816">
        <route edges="1174874706"/>
    </vehicle>
    <vehicle id="veh_91" type="car" depart="823">
        <route edges="1174874706"/>
    </vehicle>
    <vehicle id="jeepney_13" type="traditional_jeepney" depart="823">
        <route edges="-4588647 -917450542 1174874706"/>
    </vehicle>
    <vehicle id="modernjeepney_8" type="modern_jeepney" depart="828">
        <route edges="1112806233 4588647"/>
    </vehicle>
    <vehicle id="veh_156" type="motorcycle" depart="831">
        <route edges="-4588647 -917450542 1174874706"/>
    </vehicle>
    <vehicle id="veh_92" type="car" depart="835">
        <route edges="136822578 917450543"/>
    </vehicle>
    <vehicle id="veh_93" type="car" depart="841">
        <route edges="4588647 -4588647 160192389"/>
    </vehicle>
    <vehicle id="veh_157" type="motorcycle" depart="849">
        <route edges="-4588647 4588647"/>
    </vehicle>
    <vehicle id="veh_94" type="car" depart="851">
        <route edges="136822578 1174874706"/>
    </vehicle>
    <vehicle id="veh_178" type="truck" depart="857">
        <route edges="-917450542 1174874706"/>
    </vehicle>
    <vehicle id="veh_95" type="car" depart="862">
        <route edges="1174874706"/>
    </vehicle>
    <vehicle id="veh_158" type="motorcycle" depart="865">
        <route edges="1112806233 4588647"/>
    </vehicle>
    <vehicle id="veh_96" type="car" depart="872">
        <route edges="136822578 1174874706"/>
    </vehicle>
    <vehicle id="veh_97" type="car" depart="878">
        <route edges="1174874706"/>
    </vehicle>
    <vehicle id="veh_98" type="car" depart="885">
        <route edges="-917450542 917450543"/>
    </vehicle>
    <vehicle id="veh_159" type="motorcycle" depart="887">
        <route edges="136822578 1174874706"/>
    </vehicle>
    <vehicle id="jeepney_14" type="traditional_jeepney" depart="887">
        <route edges="1112806233 4588647"/>
    </vehicle>
    <vehicle id="veh_109" type="bicycle" depart="888">
        <route edges="1112806233 4588647 -4588647 -917450542"/>
    </vehicle>
    <vehicle id="veh_99" type="car" depart="894">
        <route edges="136822578 1174874706"/>
    </vehicle>
    <vehicle id="veh_207" type="car" depart="910">
        <route edges="136822578 917450542 160192389"/>
    </vehicle>
    <vehicle id="veh_293" type="motorcycle" depart="923">
        <route edges="136822578 917450542 -917450542"/>
    </vehicle>
    <vehicle id="veh_208" type="car" depart="924">
        <route edges="136822578 917450542 4588647"/>
    </vehicle>
    <vehicle id="veh_209" type="car" depart="940">
        <route edges="136822578 917450542 4588647"/>
    </vehicle>
    <vehicle id="veh_210" type="car" depart="948">
        <route edges="4588647 -4588647 -917450542 917450543"/>
    </vehicle>
    <vehicle id="veh_294" type="motorcycle" depart="958">
        <route edges="1174874706"/>
    </vehicle>
    <vehicle id="veh_211" type="car" depart="963">
        <route edges="1112806233 4588647 -4588647"/>
    </vehicle>
    <vehicle id="veh_332" type="truck" depart="965">
        <route edges="4588647 -4588647 160192389"/>
    </vehicle>
    <vehicle id="jeepney_15" type="traditional_jeepney" depart="967">
        <route edges="-4588647 -917450542 1174874706"/>
    </vehicle>
    <vehicle id="veh_212" type="car" depart="973">
        <route edges="-4588647 4588647"/>
    </vehicle>
    <vehicle id="modernjeepney_9" type="modern_jeepney" depart="983">
        <route edges="-4588647 -917450542 1174874706"/>
    </vehicle>
    <vehicle id="veh_295" type="motorcycle" depart="986">
        <route edges="1112806233 4588647 -4588647"/>
    </vehicle>
    <vehicle id="veh_213" type="car" depart="987">
        <route edges="1112806233 4588647 -4588647"/>
    </vehicle>
    <vehicle id="veh_214" type="car" depart="1001">
        <route edges="-4588647 -917450542 1174874706"/>
    </vehicle>
    <vehicle id="veh_296" type="motorcycle" depart="1012">
        <route edges="1112806233 4588647 -4588647 -917450542 1174874706"/>
    </vehicle>
    <vehicle id="veh_215" type="car" depart="1013">
        <route edges="4588647 -4588647 -917450542 1174874706"/>
    </vehicle>
    <vehicle id="veh_286" type="bicycle" depart="1016">
        <route edges="1112806233 4588647 -4588647 -917450542 1174874706"/>
    </vehicle>
    <vehicle id="veh_216" type="car" depart="1023">
        <route edges="136822578 917450543"/>
    </vehicle>
    <vehicle id="veh_297" type="motorcycle" depart="1025">
        <route edges="-917450542 1174874706"/>
    </vehicle>
    <vehicle id="veh_333" type="truck" depart="1026">
        <route edges="1174874706"/>
    </vehicle>
    <vehicle id="veh_217" type="car" depart="1029">
        <route edges="1174874706"/>
    </vehicle>
    <vehicle id="jeepney_16" type="traditional_jeepney" depart="1036">
        <route edges="-4588647 -917450542 1174874706"/>
    </vehicle>
    <vehicle id="veh_298" type="motorcycle" depart="1038">
        <route edges="1174874706"/>
    </vehicle>
    <vehicle id="veh_218" type="car" depart="1044">
        <route edges="136822578 917450543"/>
    </vehicle>
    <vehicle id="veh_219" type="car" depart="1052">
        <route edges="4588647 -4588647 -917450542 1174874706"/>
    </vehicle>
    <vehicle id="modernjeepney_10" type="modern_jeepney" depart="1059">
        <route edges="-4588647 -917450542 1174874706"/>
    </vehicle>
    <vehicle id="veh_299" type="motorcycle" depart="1060">
        <route edges="136822578 917450542 -917450542"/>
    </vehicle>
    <vehicle id="veh_346" type="bus" depart="1061">
        <route edges="136822578 917450542 4588647 -4588647"/>
    </vehicle>
    <vehicle id="veh_220" type="car" depart="1067">
        <route edges="136822578 917450542 160192389"/>
    </vehicle>
    <vehicle id="veh_221" type="car" depart="1079">
        <route edges="4588647 -4588647 -917450542 1174874706"/>
    </vehicle>
    <vehicle id="veh_300" type="motorcycle" depart="1083">
        <route edges="-4588647 4588647"/>
    </vehicle>
    <vehicle id="veh_222" type="car" depart="1085">
        <route edges="-917450542 917450543"/>
    </vehicle>
    <vehicle id="veh_334" type="truck" depart="1087">
        <route edges="1112806233 4588647 -4588647 -917450542 1174874706"/>
    </vehicle>
    <vehicle id="veh_223" type="car" depart="1097">
        <route edges="136822578 917450542 4588647"/>
    </vehicle>
    <vehicle id="veh_224" type="car" depart="1107">
        <route edges="-917450542 1174874706"/>
    </vehicle>
    <vehicle id="veh_301" type="motorcycle" depart="1107">
        <route edges="-4588647 -917450542 1174874706"/>
    </vehicle>