<?xml version="1.0" ?>
<routes xmlns:xsi="http://www.w3.org/2001/XMLSchema-instance" xsi:noNamespaceSchemaLocation="http://sumo.dlr.de/xsd/routes_file.xsd">
    <vehicle id="veh_40" type="motorcycle" depart="2">
        <route edges="1174874706"/>
    </vehicle>
    <vehicle id="veh_41" type="motorcycle" depart="4">
        <route edges="1112806233 4588647"/>
    </vehicle>
    <vehicle id="veh_0" type="car" depart="6">
        <route edges="1174874706"/>
    </vehicle>
    <vehicle id="veh_42" type="motorcycle" depart="8">
        <route edges="-4588647 -917450542"/>
    </vehicle>
    <vehicle id="veh_1" type="car" depart="11">
        <route edges="1112806233 160192389"/>
    </vehicle>
    <vehicle id="veh_43" type="motorcycle" depart="11">
        <route edges="-4588647 -917450542 1174874706"/>
    </vehicle>
    <vehicle id="veh_44" type="motorcycle" depart="13">
        <route edges="1112806233 160192389"/>
    </vehicle>
    <vehicle id="veh_2" type="car" depart="16">
        <route edges="-4588647 -917450542 1174874706"/>
    </vehicle>
    <vehicle id="veh_45" type="motorcycle" depart="18">
        <route edges="136822578 1174874706"/>
    </vehicle>
    <vehicle id="veh_46" type="motorcycle" depart="20">
        <route edges="-4588647 4588647"/>
    </vehicle>
    <vehicle id="veh_47" type="motorcycle" depart="23">
        <route edges="-917450542 1174874706"/>
    </vehicle>
    <vehicle id="veh_3" type="car" depart="24">
        <route edges="136822578 917450543"/>
    </vehicle>
    <vehicle id="veh_48" type="motorcycle" depart="26">
        <route edges="775437708 917450543"/>
    </vehicle>
    <vehicle id="veh_49" type="motorcycle" depart="32">
        <route edges="1174874706"/>
    </vehicle>
    <vehicle id="veh_50" type="motorcycle" depart="36">
        <route edges="-4588647 -917450542 1174874706"/>
    </vehicle>
    <vehicle id="veh_4" type="car" depart="37">
        <route edges="136822578 1174874706"/>
    </vehicle>
    <vehicle id="veh_51" type="motorcycle" depart="37">
        <route edges="1112806233 4588647"/>
    </vehicle>
    <vehicle id="jeepney_0" type="traditional_jeepney" depart="38">
        <route edges="1112806233 4588647"/>
    </vehicle>
    <vehicle id="veh_52" type="motorcycle" depart="39">
        <route edges="-4588647 -917450542 1174874706"/>
    </vehicle>
    <vehicle id="veh_53" type="motorcycle" depart="41">
        <route edges="-917450542 917450543"/>
    </vehicle>
    <vehicle id="veh_54" type="motorcycle" depart="43">
        <route edges="1112806233 4588647"/>
    </vehicle>
    <vehicle id="veh_5" type="car" depart="45">
        <route edges="-917450542 917450543"/>
    </vehicle>
    <vehicle id="veh_55" type="motorcycle" depart="48">
        <route edges="-4588647 -917450542 1174874706"/>
    </vehicle>
    <vehicle id="veh_56" type="motorcycle" depart="52">
        <route edges="-4588647 -917450542"/>
    </vehicle>
    <vehicle id="veh_6" type="car" depart="54">
        <route edges="-917450542 1174874706"/>
    </vehicle>
    <vehicle id="veh_57" type="motorcycle" depart="55">
        <route edges="136822578 917450543"/>
    </vehicle>
    <vehicle id="veh_125" type="truck" depart="56">
        <route edges="-917450542 1174874706"/>
    </vehicle>
    <vehicle id="veh_58" type="motorcycle" depart="59">
        <route edges="-4588647 -917450542 917450543"/>
    </vehicle>
    <vehicle id="veh_7" type="car" depart="61">
        <route edges="-4588647 -917450542"/>
    </vehicle>
    <vehicle id="veh_59" type="motorcycle" depart="62">
        <route edges="1174874706"/>
    </vehicle>
    <vehicle id="veh_8" type="car" depart="66">
        <route edges="136822578 1174874706"/>
    </vehicle>
    <vehicle id="veh_60" type="motorcycle" depart="67">
        <route edges="-917450542 917450543"/>
    </vehicle>
    <vehicle id="veh_136" type="bicycle" depart="67">
        <route edges="-4588647 160192389"/>
    </vehicle>
    <vehicle id="veh_61" type="motorcycle" depart="69">
        <route edges="-4588647 -917450542 1174874706"/>
    </vehicle>
    <vehicle id="veh_62" type="motorcycle" depart="72">
        <route edges="1112806233 160192389"/>
    </vehicle>
    <vehicle id="veh_63" type="motorcycle" depart="73">
        <route edges="1112806233 160192389"/>
    </vehicle>
    <vehicle id="veh_9" type="car" depart="77">
        <route edges="-4588647 -917450542 1174874706"/>
    </vehicle>
    <vehicle id="veh_64" type="motorcycle" depart="77">
        <route edges="-4588647 4588647"/>
    </vehicle>
    <vehicle id="veh_65" type="motorcycle" depart="79">
        <route edges="-917450542 1174874706"/>
    </vehicle>
    <vehicle id="veh_66" type="motorcycle" depart="84">
        <route edges="-4588647 -917450542 1174874706"/>
    </vehicle>
    <vehicle id="veh_10" type="car" depart="85">
        <route edges="1174874706"/>
    </vehicle>
    <vehicle id="veh_67" type="motorcycle" depart="86">
        <route edges="-4588647 160192389"/>
    </vehicle>
    <vehicle id="veh_68" type="motorcycle" depart="90">
        <route edges="1112806233 4588647"/>
    </vehicle>
    <vehicle id="veh_11" type="car" depart="92">
        <route edges="-4588647 -917450542"/>
    </vehicle>
    <vehicle id="veh_69" type="motorcycle" depart="94">
        <route edges="-917450542 1174874706"/>
    </vehicle>
    <vehicle id="veh_12" type="car" depart="97">
        <route edges="-917450542 1174874706"/>
    </vehicle>
    <vehicle id="veh_70" type="motorcycle" depart="98">
        <route edges="-4588647 -917450542 1174874706"/>
    </vehicle>
    <vehicle id="jeepney_1" type="traditional_jeepney" depart="98">
        <route edges="-4588647 -917450542 1174874706"/>
    </vehicle>
    <vehicle id="veh_71" type="motorcycle" depart="100">
        <route edges="1174874706"/>
    </vehicle>
    <vehicle id="veh_72" type="motorcycle" depart="101">
        <route edges="1174874706"/>
    </vehicle>
    <vehicle id="veh_73" type="motorcycle" depart="104">
        <route edges="136822578 1174874706"/>
    </vehicle>
    <vehicle id="veh_74" type="motorcycle" depart="107">
        <route edges="-917450542 1174874706"/>
    </vehicle>
    <vehicle id="veh_13" type="car" depart="108">
        <route edges="-917450542 917450543"/>
    </vehicle>
    <vehicle id="veh_75" type="motorcycle" depart="109">
        <route edges="775437708 917450543"/>
    </vehicle>
    <vehicle id="veh_76" type="motorcycle" depart="113">
        <route edges="136822578 917450543"/>
    </vehicle>
    <vehicle id="veh_126" type="truck" depart="116">
        <route edges="-917450542 917450543"/>
    </vehicle>
    <vehicle id="veh_14" type="car" depart="117">
        <route edges="-4588647 -917450542"/>
    </vehicle>
    <vehicle id="veh_77" type="motorcycle" depart="118">
        <route edges="-4588647 -917450542 917450543"/>
    </vehicle>
    <vehicle id="veh_15" type="car" depart="123">
        <route edges="-4588647 160192389"/>
    </vehicle>
    <vehicle id="veh_78" type="motorcycle" depart="123">
        <route edges="1112806233 4588647"/>
    </vehicle>
    <vehicle id="veh_79" type="motorcycle" depart="125">
        <route edges="136822578 1174874706"/>
    </vehicle>
    <vehicle id="veh_80" type="motorcycle" depart="130">
        <route edges="136822578 917450543"/>
    </vehicle>
    <vehicle id="veh_137" type="bicycle" depart="132">
        <route edges="-4588647 -917450542 1174874706"/>
    </vehicle>
    <vehicle id="veh_16" type="car" depart="133">
        <route edges="-917450542 1174874706"/>
    </vehicle>
    <vehicle id="veh_81" type="motorcycle" depart="133">
        <route edges="1112806233 4588647"/>
    </vehicle>
    <vehicle id="veh_129" type="bus" depart="138">
        <route edges="-4588647 -917450542 1174874706"/>
    </vehicle>
    <vehicle id="veh_17" type="car" depart="142">
        <route edges="-4588647 -917450542 917450543"/>
    </vehicle>
    <vehicle id="veh_18" type="car" depart="146">
        <route edges="136822578 917450543"/>
    </vehicle>
    <vehicle id="veh_82" type="motorcycle" depart="146">
        <route edges="-4588647 -917450542"/>
    </vehicle>
    <vehicle id="veh_83" type="motorcycle" depart="151">
        <route edges="-917450542 1174874706"/>
    </vehicle>
    <vehicle id="veh_84" type="motorcycle" depart="155">
        <route edges="-4588647 -917450542"/>
    </vehicle>
    <vehicle id="veh_19" type="car" depart="156">
        <route edges="-4588647 4588647"/>
    </vehicle>
    <vehicle id="veh_85" type="motorcycle" depart="156">
        <route edges="-917450542 1174874706"/>
    </vehicle>
    <vehicle id="jeepney_2" type="traditional_jeepney" depart="156">
        <route edges="1112806233 4588647"/>
    </vehicle>
    <vehicle id="veh_86" type="motorcycle" depart="160">
        <route edges="136822578 1174874706"/>
    </vehicle>
    <vehicle id="veh_20" type="car" depart="161">
        <route edges="136822578 917450543"/>
    </vehicle>
    <vehicle id="veh_87" type="motorcycle" depart="163">
        <route edges="1174874706"/>
    </vehicle>
    <vehicle id="veh_88" type="motorcycle" depart="164">
        <route edges="136822578 1174874706"/>
    </vehicle>
    <vehicle id="veh_89" type="motorcycle" depart="166">
        <route edges="-4588647 -917450542 917450543"/>
    </vehicle>
    <vehicle id="veh_21" type="car" depart="167">
        <route edges="-4588647 -917450542 917450543"/>
    </vehicle>
    <vehicle id="veh_90" type="motorcycle" depart="170">
        <route edges="1174874706"/>
    </vehicle>
    <vehicle id="veh_91" type="motorcycle" depart="172">
        <route edges="1174874706"/>
    </vehicle>
    <vehicle id="veh_92" type="motorcycle" depart="174">
        <route edges="-4588647 160192389"/>
    </vehicle>
    <vehicle id="veh_22" type="car" depart="178">
        <route edges="1174874706"/>
    </vehicle>
    <vehicle id="veh_93" type="motorcycle" depart="178">
        <route edges="775437708 917450543"/>
    </vehicle>
    <vehicle id="veh_94" type="motorcycle" depart="181">
        <route edges="1174874706"/>
    </vehicle>
    <vehicle id="veh_23" type="car" depart="183">
        <route edges="1174874706"/>
    </vehicle>
    <vehicle id="veh_95" type="motorcycle" depart="185">
        <route edges="-4588647 -917450542 1174874706"/>
    </vehicle>
    <vehicle id="veh_96" type="motorcycle" depart="189">
        <route edges="-4588647 -917450542 917450543"/>
    </vehicle>
    <vehicle id="veh_97" type="motorcycle" depart="191">
        <route edges="-4588647 -917450542 1174874706"/>
    </vehicle>
    <vehicle id="veh_127" type="truck" depart="191">
        <route edges="136822578 1174874706"/>
    </vehicle>
    <vehicle id="veh_24" type="car" depart="192">
        <route edges="-917450542 1174874706"/>
    </vehicle>
    <vehicle id="veh_98" type="motorcycle" depart="195">
        <route edges="775437708 917450543"/>
    </vehicle>
    <vehicle id="veh_99" type="motorcycle" depart="197">
        <route edges="136822578 917450543"/>
    </vehicle>
    <vehicle id="veh_25" type="car" depart="198">
        <route edges="1174874706"/>
    </vehicle>
    <vehicle id="veh_100" type="motorcycle" depart="199">
        <route edges="136822578 1174874706"/>
    </vehicle>
    <vehicle id="veh_101" type="motorcycle" depart="203">
        <route edges="-4588647 -917450542 917450543"/>
    </vehicle>
    <vehicle id="veh_26" type="car" depart="206">
        <route edges="136822578 1174874706"/>
    </vehicle>
    <vehicle id="veh_102" type="motorcycle" depart="211">
        <route edges="-917450542 917450543"/>
    </vehicle>
    <vehicle id="veh_27" type="car" depart="212">
        <route edges="-917450542 1174874706"/>
    </vehicle>
    <vehicle id="jeepney_3" type="traditional_jeepney" depart="214">
        <route edges="-4588647 -917450542 1174874706"/>
    </vehicle>
    <vehicle id="veh_138" type="bicycle" depart="214">
        <route edges="1112806233 160192389"/>
    </vehicle>
    <vehicle id="veh_103" type="motorcycle" depart="216">
        <route edges="136822578 1174874706"/>
    </vehicle>
    <vehicle id="veh_104" type="motorcycle" depart="218">
        <route edges="-4588647 4588647"/>
    </vehicle>
    <vehicle id="veh_28" type="car" depart="220">
        <route edges="-4588647 160192389"/>
    </vehicle>
    <vehicle id="veh_105" type="motorcycle" depart="224">
        <route edges="1112806233 4588647"/>
    </vehicle>
    <vehicle id="veh_29" type="car" depart="226">
        <route edges="136822578 917450543"/>
    </vehicle>
    <vehicle id="veh_106" type="motorcycle" depart="228">
        <route edges="1174874706"/>
    </vehicle>
    <vehicle id="veh_30" type="car" depart="230">
        <route edges="136822578 917450543"/>
    </vehicle>
    <vehicle id="veh_107" type="motorcycle" depart="232">
        <route edges="136822578 1174874706"/>
    </vehicle>
    <vehicle id="veh_31" type="car" depart="235">
        <route edges="136822578 1174874706"/>
    </vehicle>
    <vehicle id="veh_108" type="motorcycle" depart="235">
        <route edges="-4588647 -917450542 917450543"/>
    </vehicle>
    <vehicle id="veh_109" type="motorcycle" depart="238">
        <route edges="-4588647 -917450542 917450543"/>
    </vehicle>
    <vehicle id="veh_32" type="car" depart="241">
        <route edges="-917450542 1174874706"/>
    </vehicle>
    <vehicle id="veh_110" type="motorcycle" depart="245">
        <route edges="-4588647 -917450542"/>
    </vehicle>
    <vehicle id="veh_111" type="motorcycle" depart="245">
        <route edges="-917450542 1174874706"/>
    </vehicle>
    <vehicle id="veh_33" type="car" depart="249">
        <route edges="-917450542 1174874706"/>
    </vehicle>
    <vehicle id="veh_128" type="truck" depart="251">
        <route edges="-4588647 -917450542 1174874706"/>
    </vehicle>
    <vehicle id="veh_112" type="motorcycle" depart="252">
        <route edges="1112806233 4588647"/>
    </vehicle>
    <vehicle id="veh_113" type="motorcycle" depart="255">
        <route edges="775437708 917450543"/>
    </vehicle>
    <vehicle id="veh_34" type="car" depart="256">
        <route edges="-917450542 1174874706"/>
    </vehicle>
    <vehicle id="veh_114" type="motorcycle" depart="256">
        <route edges="1174874706"/>
    </vehicle>
    <vehicle id="veh_115" type="motorcycle" depart="257">
        <route edges="-4588647 -917450542"/>
    </vehicle>
    <vehicle id="veh_116" type="motorcycle" depart="258">
        <route edges="-917450542 917450543"/>
    </vehicle>
    <vehicle id="veh_117" type="motorcycle" depart="260">
        <route edges="136822578 1174874706"/>
    </vehicle>
    <vehicle id="veh_118" type="motorcycle" depart="263">
        <route edges="1112806233 4588647"/>
    </vehicle>
    <vehicle id="veh_35" type="car" depart="264">
        <route edges="-4588647 -917450542 917450543"/>
    </vehicle>
    <vehicle id="veh_119" type="motorcycle" depart="264">
        <route edges="1174874706"/>
    </vehicle>
    <vehicle id="veh_120" type="motorcycle" depart="267">
        <route edges="1112806233 4588647"/>
    </vehicle>
    <vehicle id="veh_121" type="motorcycle" depart="270">
        <route edges="136822578 917450543"/>
    </vehicle>
    <vehicle id="jeepney_4" type="traditional_jeepney" depart="270">
        <route edges="-4588647 -917450542 1174874706"/>
    </vehicle>
    <vehicle id="veh_122" type="motorcycle" depart="271">
        <route edges="1112806233 160192389"/>
    </vehicle>
    <vehicle id="veh_36" type="car" depart="274">
        <route edges="-4588647 4588647"/>
    </vehicle>
    <vehicle id="veh_123" type="motorcycle" depart="280">
        <route edges="136822578 1174874706"/>
    </vehicle>
    <vehicle id="veh_37" type="car" depart="283">
        <route edges="136822578 917450543"/>
    </vehicle>
    <vehicle id="veh_124" type="motorcycle" depart="284">
        <route edges="136822578 1174874706"/>
    </vehicle>
    <vehicle id="veh_38" type="car" depart="292">
        <route edges="-917450542 917450543"/>
    </vehicle>
    <vehicle id="veh_39" type="car" depart="294">
        <route edges="-4588647 -917450542"/>
    </vehicle>
    <vehicle id="veh_130" type="bus" depart="294">
        <route edges="775437708 917450543"/>
    </vehicle>
    <vehicle id="veh_139" type="bicycle" depart="295">
        <route edges="1112806233 160192389"/>
    </vehicle>
    <vehicle id="veh_140" type="car" depart="306">
        <route edges="-4588647 -917450542 1174874706"/>
    </vehicle>
    <vehicle id="veh_189" type="motorcycle" depart="307">
        <route edges="775437708 917450543"/>
    </vehicle>
    <vehicle id="veh_256" type="bicycle" depart="310">
        <route edges="-917450542 1174874706"/>
    </vehicle>
    <vehicle id="veh_141" type="car" depart="314">
        <route edges="1174874706"/>
    </vehicle>
    <vehicle id="veh_190" type="motorcycle" depart="315">
        <route edges="1112806233 4588647"/>
    </vehicle>
    <vehicle id="veh_191" type="motorcycle" depart="318">
        <route edges="-4588647 -917450542 1174874706"/>
    </vehicle>
    <vehicle id="veh_257" type="bicycle" depart="320">
        <route edges="1112806233 4588647"/>
    </vehicle>
    <vehicle id="jeepney_5" type="traditional_jeepney" depart="321">
        <route edges="1112806233 4588647"/>
    </vehicle>
    <vehicle id="veh_142" type="car" depart="322">
        <route edges="-4588647 4588647"/>
    </vehicle>
    <vehicle id="veh_192" type="motorcycle" depart="323">
        <route edges="-4588647 -917450542 1174874706"/>
    </vehicle>
    <vehicle id="veh_143" type="car" depart="329">
        <route edges="-4588647 4588647"/>
    </vehicle>
    <vehicle id="veh_193" type="motorcycle" depart="329">
        <route edges="-4588647 4588647"/>
    </vehicle>
    <vehicle id="veh_258" type="bicycle" depart="329">
        <route edges="-4588647 -917450542 917450543"/>
    </vehicle>
    <vehicle id="veh_194" type="motorcycle" depart="333">
        <route edges="-4588647 -917450542 1174874706"/>
    </vehicle>
    <vehicle id="veh_144" type="car" depart="334">
        <route edges="1112806233 4588647"/>
    </vehicle>
    <vehicle id="veh_195" type="motorcycle" depart="341">
        <route edges="1174874706"/>
    </vehicle>
    <vehicle id="veh_259" type="bicycle" depart="342">
        <route edges="-4588647 4588647"/>
    </vehicle>
    <vehicle id="jeepney_6" type="traditional_jeepney" depart="346">
        <route edges="1112806233 4588647"/>
    </vehicle>
    <vehicle id="veh_145" type="car" depart="347">
        <route edges="136822578 1174874706"/>
    </vehicle>
    <vehicle id="veh_196" type="motorcycle" depart="349">
        <route edges="-917450542 1174874706"/>
    </vehicle>
    <vehicle id="veh_146" type="car" depart="352">
        <route edges="1112806233 4588647"/>
    </vehicle>
    <vehicle id="veh_197" type="motorcycle" depart="354">
        <route edges="-4588647 -917450542 917450543"/>
    </vehicle>
    <vehicle id="veh_260" type="bicycle" depart="354">
        <route edges="-917450542 917450543"/>
    </vehicle>
    <vehicle id="veh_147" type="car" depart="356">
        <route edges="775437708 917450543"/>
    </vehicle>
    <vehicle id="veh_198" type="motorcycle" depart="359">
        <route edges="136822578 1174874706"/>
    </vehicle>
    <vehicle id="veh_148" type="car" depart="360">
        <route edges="-917450542 1174874706"/>
    </vehicle>
    <vehicle id="veh_149" type="car" depart="365">
        <route edges="1174874706"/>
    </vehicle>
    <vehicle id="jeepney_7" type="traditional_jeepney" depart="365">
        <route edges="-4588647 -917450542 1174874706"/>
    </vehicle>
    <vehicle id="veh_199" type="motorcycle" depart="367">
        <route edges="136822578 1174874706"/>
    </vehicle>
    <vehicle id="veh_236" type="truck" depart="367">
        <route edges="-4588647 -917450542 1174874706"/>
    </vehicle>
    <vehicle id="veh_261" type="bicycle" depart="370">
        <route edges="775437708 917450543"/>
    </vehicle>
    <vehicle id="veh_150" type="car" depart="372">
        <route edges="-917450542 917450543"/>
    </vehicle>
    <vehicle id="veh_200" type="motorcycle" depart="373">
        <route edges="136822578 1174874706"/>
    </vehicle>
    <vehicle id="veh_201" type="motorcycle" depart="377">
        <route edges="1112806233 4588647"/>
    </vehicle>
    <vehicle id="veh_262" type="bicycle" depart="378">
        <route edges="1174874706"/>
    </vehicle>
    <vehicle id="veh_151" type="car" depart="380">
        <route edges="-917450542 1174874706"/>
    </vehicle>
    <vehicle id="veh_263" type="bicycle" depart="383">
        <route edges="1174874706"/>
    </vehicle>
    <vehicle id="veh_202" type="motorcycle" depart="385">
        <route edges="1112806233 4588647"/>
    </vehicle>
    <vehicle id="jeepney_8" type="traditional_jeepney" depart="386">
        <route edges="1112806233 4588647"/>
    </vehicle>
    <vehicle id="veh_152" type="car" depart="388">
        <route edges="-917450542 917450543"/>
    </vehicle>
    <vehicle id="veh_264" type="bicycle" depart="391">
        <route edges="-917450542 917450543"/>
    </vehicle>
    <vehicle id="veh_153" type="car" depart="392">
        <route edges="1174874706"/>
    </vehicle>
    <vehicle id="veh_203" type="motorcycle" depart="392">
        <route edges="-4588647 4588647"/>
    </vehicle>
    <vehicle id="veh_265" type="bicycle" depart="397">
        <route edges="1112806233 4588647"/>
    </vehicle>
    <vehicle id="veh_154" type="car" depart="398">
        <route edges="-917450542 1174874706"/>
    </vehicle>
    <vehicle id="veh_204" type="motorcycle" depart="398">
        <route edges="-4588647 -917450542 1174874706"/>
    </vehicle>
    <vehicle id="veh_155" type="car" depart="404">
        <route edges="775437708 917450543"/>
    </vehicle>
    <vehicle id="veh_205" type="motorcycle" depart="404">
        <route edges="-4588647 160192389"/>
    </vehicle>
    <vehicle id="veh_266" type="bicycle" depart="405">
        <route edges="-4588647 -917450542"/>
    </vehicle>
    <vehicle id="jeepney_9" type="traditional_jeepney" depart="408">
        <route edges="-4588647 -917450542 1174874706"/>
    </vehicle>
    <vehicle id="veh_206" type="motorcycle" depart="410">
        <route edges="775437708 917450543"/>
    </vehicle>
    <vehicle id="veh_267" type="bicycle" depart="410">
        <route edges="-917450542 1174874706"/>
    </vehicle>
    <vehicle id="veh_156" type="car" depart="412">
        <route edges="-917450542 1174874706"/>
    </vehicle>
    <vehicle id="veh_157" type="car" depart="417">
        <route edges="1174874706"/>
    </vehicle>
    <vehicle id="veh_268" type="bicycle" depart="417">
        <route edges="-4588647 4588647"/>
    </vehicle>
    <vehicle id="jeepney_10" type="traditional_jeepney" depart="419">
        <route edges="1112806233 4588647"/>
    </vehicle>
    <vehicle id="veh_158" type="car" depart="420">
        <route edges="775437708 917450543"/>
    </vehicle>
    <vehicle id="veh_237" type="truck" depart="420">
        <route edges="-917450542 1174874706"/>
    </vehicle>
    <vehicle id="veh_207" type="motorcycle" depart="424">
        <route edges="-4588647 160192389"/>
    </vehicle>
    <vehicle id="veh_269" type="bicycle" depart="425">
        <route edges="-917450542 917450543"/>
    </vehicle>
    <vehicle id="veh_159" type="car" depart="427">
        <route edges="1174874706"/>
    </vehicle>
    <vehicle id="veh_160" type="car" depart="432">
        <route edges="1174874706"/>
    </vehicle>
    <vehicle id="veh_270" type="bicycle" depart="432">
        <route edges="775437708 917450543"/>
    </vehicle>
    <vehicle id="veh_208" type="motorcycle" depart="433">
        <route edges="-917450542 917450543"/>
    </vehicle>
    <vehicle id="jeepney_11" type="traditional_jeepney" depart="437">
        <route edges="1112806233 4588647"/>
    </vehicle>
    <vehicle id="veh_161" type="car" depart="440">
        <route edges="775437708 917450543"/>
    </vehicle>
    <vehicle id="veh_209" type="motorcycle" depart="441">
        <route edges="-4588647 4588647"/>
    </vehicle>
    <vehicle id="veh_271" type="bicycle" depart="442">
        <route edges="136822578 1174874706"/>
    </vehicle>
    <vehicle id="veh_162" type="car" depart="443">
        <route edges="-917450542 1174874706"/>
    </vehicle>
    <vehicle id="veh_163" type="car" depart="449">
        <route edges="775437708 917450543"/>
    </vehicle>
    <vehicle id="veh_210" type="motorcycle" depart="449">
        <route edges="1174874706"/>
    </vehicle>
    <vehicle id="jeepney_12" type="traditional_jeepney" depart="450">
        <route edges="-4588647 -917450542 1174874706"/>
    </vehicle>
    <vehicle id="veh_164" type="car" depart="453">
        <route edges="136822578 917450543"/>
    </vehicle>
    <vehicle id="veh_211" type="motorcycle" depart="454">
        <route edges="775437708 917450543"/>
    </vehicle>
    <vehicle id="veh_272" type="bicycle" depart="454">
        <route edges="-917450542 1174874706"/>
    </vehicle>
    <vehicle id="veh_212" type="motorcycle" depart="460">
        <route edges="-4588647 -917450542 1174874706"/>
    </vehicle>
    <vehicle id="veh_213" type="motorcycle" depart="466">
        <route edges="775437708 917450543"/>
    </vehicle>
    <vehicle id="veh_273" type="bicycle" depart="466">
        <route edges="-4588647 -917450542"/>
    </vehicle>
    <vehicle id="veh_165" type="car" depart="467">
        <route edges="-917450542 1174874706"/>
    </vehicle>
    <vehicle id="jeepney_13" type="traditional_jeepney" depart="469">
        <route edges="-4588647 -917450542 1174874706"/>
    </vehicle>
    <vehicle id="veh_166" type="car" depart="472">
        <route edges="-4588647 -917450542 1174874706"/>
    </vehicle>
    <vehicle id="veh_214" type="motorcycle" depart="474">
        <route edges="-4588647 160192389"/>
    </vehicle>
    <vehicle id="veh_274" type="bicycle" depart="474">
        <route edges="-4588647 -917450542 1174874706"/>
    </vehicle>
    <vehicle id="veh_238" type="truck" depart="476">
        <route edges="-4588647 -917450542 917450543"/>
    </vehicle>
    <vehicle id="veh_167" type="car" depart="478">
        <route edges="136822578 1174874706"/>
    </vehicle>
    <vehicle id="veh_168" type="car" depart="480">
        <route edges="1112806233 4588647"/>
    </vehicle>
    <vehicle id="veh_275" type="bicycle" depart="482">
        <route edges="-4588647 160192389"/>
    </vehicle>
    <vehicle id="veh_215" type="motorcycle" depart="483">
        <route edges="-917450542 1174874706"/>
    </vehicle>
    <vehicle id="jeepney_14" type="traditional_jeepney" depart="483">
        <route edges="-4588647 -917450542 1174874706"/>
    </vehicle>
    <vehicle id="veh_216" type="motorcycle" depart="487">
        <route edges="136822578 917450543"/>
    </vehicle>
    <vehicle id="veh_169" type="car" depart="488">
        <route edges="-4588647 4588647"/>
    </vehicle>
    <vehicle id="veh_170" type="car" depart="492">
        <route edges="1174874706"/>
    </vehicle>
    <vehicle id="veh_217" type="motorcycle" depart="493">
        <route edges="775437708 917450543"/>
    </vehicle>
    <vehicle id="veh_276" type="bicycle" depart="493">
        <route edges="1112806233 160192389"/>
    </vehicle>
    <vehicle id="veh_218" type="motorcycle" depart="497">
        <route edges="136822578 1174874706"/>
    </vehicle>
    <vehicle id="jeepney_15" type="traditional_jeepney" depart="497">
        <route edges="1112806233 4588647"/>
    </vehicle>
    <vehicle id="veh_171" type="car" depart="498">
        <route edges="-4588647 4588647"/>
    </vehicle>
    <vehicle id="veh_219" type="motorcycle" depart="502">
        <route edges="-917450542 1174874706"/>
    </vehicle>
    <vehicle id="veh_172" type="car" depart="504">
        <route edges="-917450542 1174874706"/>
    </vehicle>
    <vehicle id="veh_277" type="bicycle" depart="504">
        <route edges="-4588647 -917450542 917450543"/>
    </vehicle>
    <vehicle id="veh_173" type="car" depart="508">
        <route edges="136822578 1174874706"/>
    </vehicle>
    <vehicle id="veh_220" type="motorcycle" depart="508">
        <route edges="1174874706"/>
    </vehicle>
    <vehicle id="veh_174" type="car" depart="513">
        <route edges="1174874706"/>
    </vehicle>
    <vehicle id="veh_221" type="motorcycle" depart="515">
        <route edges="-4588647 -917450542 1174874706"/>
    </vehicle>
    <vehicle id="veh_278" type="bicycle" depart="517">
        <route edges="-4588647 4588647"/>
    </vehicle>
    <vehicle id="veh_222" type="motorcycle" depart="520">
        <route edges="-4588647 -917450542 917450543"/>
    </vehicle>
    <vehicle id="veh_175" type="car" depart="522">
        <route edges="1112806233 4588647"/>
    </vehicle>
    <vehicle id="veh_223" type="motorcycle" depart="522">
        <route edges="-4588647 -917450542 1174874706"/>
    </vehicle>
    <vehicle id="jeepney_16" type="traditional_jeepney" depart="524">
        <route edges="1112806233 4588647"/>
    </vehicle>
    <vehicle id="veh_176" type="car" depart="525">
        <route edges="1174874706"/>
    </vehicle>
    <vehicle id="veh_239" type="truck" depart="526">
        <route edges="-4588647 160192389"/>
    </vehicle>
    <vehicle id="veh_279" type="bicycle" depart="526">
        <route edges="-4588647 -917450542"/>
    </vehicle>
    <vehicle id="veh_224" type="motorcycle" depart="530">
        <route edges="-917450542 1174874706"/>
    </vehicle>
    <vehicle id="veh_177" type="car" depart="532">
        <route edges="136822578 1174874706"/>
    </vehicle>
    <vehicle id="veh_280" type="bicycle" depart="532">
        <route edges="1174874706"/>
    </vehicle>
    <vehicle id="veh_281" type="bicycle" depart="536">
        <route edges="136822578 1174874706"/>
    </vehicle>