<?xml version="1.0" ?>
<routes xmlns:xsi="http://www.w3.org/2001/XMLSchema-instance" xsi:noNamespaceSchemaLocation="http://sumo.dlr.de/xsd/routes_file.xsd">
    <vehicle id="veh_0" type="car" depart="4">
        <route edges="-917450542 1174874706"/>
    </vehicle>
    <vehicle id="veh_104" type="motorcycle" depart="8">
        <route edges="136822578 917450542 160192389"/>
    </vehicle>
    <vehicle id="veh_1" type="car" depart="10">
        <route edges="136822578 917450543"/>
    </vehicle>
    <vehicle id="veh_2" type="car" depart="21">
        <route edges="1112806233 4588647 -4588647 -917450542 1174874706"/>
    </vehicle>
    <vehicle id="veh_105" type="motorcycle" depart="27">
        <route edges="1112806233 4588647 -4588647 -917450542 1174874706"/>
    </vehicle>
    <vehicle id="veh_3" type="car" depart="36">
        <route edges="4588647 -4588647 -917450542"/>
    </vehicle>
    <vehicle id="jeepney_0" type="traditional_jeepney" depart="39">
        <route edges="1112806233 4588647"/>
    </vehicle>
    <vehicle id="veh_106" type="motorcycle" depart="43">
        <route edges="1174874706"/>
    </vehicle>
    <vehicle id="veh_153" type="truck" depart="46">
        <route edges="4588647 -4588647 -917450542"/>
    </vehicle>
    <vehicle id="veh_4" type="car" depart="47">
        <route edges="-917450542 1174874706"/>
    </vehicle>
    <vehicle id="veh_107" type="motorcycle" depart="57">
        <route edges="4588647 -4588647 -917450542 1174874706"/>
    </vehicle>
    <vehicle id="veh_5" type="car" depart="64">
        <route edges="-917450542 917450543"/>
    </vehicle>
    <vehicle id="modernjeepney_0" type="modern_jeepney" depart="69">
        <route edges="1112806233 4588647"/>
    </vehicle>
    <vehicle id="veh_6" type="car" depart="73">
        <route edges="136822578 1174874706"/>
    </vehicle>
    <vehicle id="veh_108" type="motorcycle" depart="79">
        <route edges="-917450542 917450543"/>
    </vehicle>
    <vehicle id="veh_7" type="car" depart="84">
        <route edges="136822578 917450542 4588647 -4588647"/>
    </vehicle>
    <vehicle id="veh_95" type="bicycle" depart="87">
        <route edges="4588647 -4588647 -917450542 1174874706"/>
    </vehicle>
    <vehicle id="veh_8" type="car" depart="90">
        <route edges="-4588647 -917450542"/>
    </vehicle>
    <vehicle id="veh_154" type="truck" depart="90">
        <route edges="1112806233 4588647 -4588647"/>
    </vehicle>
    <vehicle id="veh_109" type="motorcycle" depart="96">
        <route edges="-4588647 -917450542 1174874706"/>
    </vehicle>
    <vehicle id="veh_9" type="car" depart="100">
        <route edges="-917450542 917450543"/>
    </vehicle>
    <vehicle id="jeepney_1" type="traditional_jeepney" depart="102">
        <route edges="1112806233 4588647"/>
    </vehicle>
    <vehicle id="veh_10" type="car" depart="112">
        <route edges="136822578 1174874706"/>
    </vehicle>
    <vehicle id="veh_110" type="motorcycle" depart="113">
        <route edges="136822578 917450542 4588647 -4588647"/>
    </vehicle>
    <vehicle id="veh_11" type="car" depart="118">
        <route edges="1112806233 4588647 -4588647 -917450542 1174874706"/>
    </vehicle>
    <vehicle id="veh_12" type="car" depart="125">
        <route edges="4588647 -4588647 -917450542"/>
    </vehicle>
    <vehicle id="veh_111" type="motorcycle" depart="131">
        <route edges="-4588647 4588647"/>
    </vehicle>
    <vehicle id="veh_13" type="car" depart="135">
        <route edges="4588647 -4588647 160192389"/>
    </vehicle>
    <vehicle id="veh_155" type="truck" depart="139">
        <route edges="1112806233 160192389"/>
    </vehicle>
    <vehicle id="modernjeepney_1" type="modern_jeepney" depart="147">
        <route edges="-4588647 -917450542 1174874706"/>
    </vehicle>
    <vehicle id="veh_112" type="motorcycle" depart="149">
        <route edges="4588647 -4588647 -917450542 917450543"/>
    </vehicle>
    <vehicle id="veh_14" type="car" depart="150">
        <route edges="4588647 -4588647"/>
    </vehicle>
    <vehicle id="veh_15" type="car" depart="161">
        <route edges="136822578 917450542 4588647"/>
    </vehicle>
    <vehicle id="jeepney_2" type="traditional_jeepney" depart="162">
        <route edges="-4588647 -917450542 1174874706"/>
    </vehicle>
    <vehicle id="veh_113" type="motorcycle" depart="168">
        <route edges="-4588647 -917450542 917450543"/>
    </vehicle>
    <vehicle id="veh_96" type="bicycle" depart="169">
        <route edges="1112806233 4588647 -4588647 -917450542 1174874706"/>
    </vehicle>
    <vehicle id="veh_16" type="car" depart="171">
        <route edges="-4588647 160192389"/>
    </vehicle>
    <vehicle id="veh_17" type="car" depart="180">
        <route edges="-4588647 -917450542 917450543"/>
    </vehicle>
    <vehicle id="veh_156" type="truck" depart="184">
        <route edges="1112806233 4588647"/>
    </vehicle>
    <vehicle id="veh_114" type="motorcycle" depart="186">
        <route edges="1112806233 4588647 -4588647 -917450542 1174874706"/>
    </vehicle>
    <vehicle id="veh_18" type="car" depart="190">
        <route edges="-4588647 4588647"/>
    </vehicle>
    <vehicle id="veh_173" type="bus" depart="193">
        <route edges="136822578 917450542 -917450542"/>
    </vehicle>
    <vehicle id="veh_19" type="car" depart="205">
        <route edges="1112806233 4588647 -4588647 -917450542 917450543"/>
    </vehicle>
    <vehicle id="veh_115" type="motorcycle" depart="209">
        <route edges="1112806233 4588647 -4588647 -917450542"/>
    </vehicle>
    <vehicle id="veh_20" type="car" depart="212">
        <route edges="136822578 917450542 4588647 -4588647"/>
    </vehicle>
    <vehicle id="veh_21" type="car" depart="216">
        <route edges="-4588647 -917450542"/>
    </vehicle>
    <vehicle id="veh_116" type="motorcycle" depart="220">
        <route edges="1112806233 4588647 -4588647"/>
    </vehicle>
    <vehicle id="veh_22" type="car" depart="226">
        <route edges="4588647 -4588647"/>
    </vehicle>
    <vehicle id="veh_157" type="truck" depart="228">
        <route edges="4588647 -4588647 -917450542 917450543"/>
    </vehicle>
    <vehicle id="veh_23" type="car" depart="236">
        <route edges="4588647 -4588647 -917450542 1174874706"/>
    </vehicle>
    <vehicle id="veh_117" type="motorcycle" depart="238">
        <route edges="-4588647 4588647"/>
    </vehicle>
    <vehicle id="jeepney_3" type="traditional_jeepney" depart="238">
        <route edges="1112806233 4588647"/>
    </vehicle>
    <vehicle id="modernjeepney_2" type="modern_jeepney" depart="241">
        <route edges="-4588647 -917450542 1174874706"/>
    </vehicle>
    <vehicle id="veh_24" type="car" depart="245">
        <route edges="1112806233 4588647 -4588647 -917450542 1174874706"/>
    </vehicle>
    <vehicle id="veh_25" type="car" depart="254">
        <route edges="4588647 -4588647 -917450542"/>
    </vehicle>
    <vehicle id="veh_97" type="bicycle" depart="255">
        <route edges="136822578 917450542 4588647 -4588647"/>
    </vehicle>
    <vehicle id="veh_118" type="motorcycle" depart="256">
        <route edges="4588647 -4588647"/>
    </vehicle>
    <vehicle id="veh_26" type="car" depart="266">
        <route edges="1112806233 160192389"/>
    </vehicle>
    <vehicle id="veh_119" type="motorcycle" depart="270">
        <route edges="-917450542 917450543"/>
    </vehicle>
    <vehicle id="veh_27" type="car" depart="278">
        <route edges="1112806233 4588647 -4588647 -917450542 1174874706"/>
    </vehicle>
    <vehicle id="veh_158" type="truck" depart="280">
        <route edges="-4588647 -917450542 1174874706"/>
    </vehicle>
    <vehicle id="veh_28" type="car" depart="283">
        <route edges="4588647 -4588647 -917450542"/>
    </vehicle>
    <vehicle id="veh_120" type="motorcycle" depart="284">
        <route edges="1112806233 4588647 -4588647 -917450542"/>
    </vehicle>
    <vehicle id="veh_29" type="car" depart="291">
        <route edges="1112806233 160192389"/>
    </vehicle>
    <vehicle id="jeepney_4" type="traditional_jeepney" depart="296">
        <route edges="-4588647 -917450542 1174874706"/>
    </vehicle>
    <vehicle id="veh_121" type="motorcycle" depart="300">
        <route edges="1174874706"/>
    </vehicle>
    <vehicle id="veh_30" type="car" depart="304">
        <route edges="4588647 -4588647 -917450542 1174874706"/>
    </vehicle>
    <vehicle id="veh_31" type="car" depart="314">
        <route edges="-4588647 160192389"/>
    </vehicle>
    <vehicle id="veh_122" type="motorcycle" depart="319">
        <route edges="-4588647 -917450542"/>
    </vehicle>
    <vehicle id="veh_32" type="car" depart="323">
        <route edges="136822578 1174874706"/>
    </vehicle>
    <vehicle id="modernjeepney_3" type="modern_jeepney" depart="325">
        <route edges="-4588647 -917450542 1174874706"/>
    </vehicle>
    <vehicle id="veh_159" type="truck" depart="327">
        <route edges="-917450542 917450543"/>
    </vehicle>
    <vehicle id="veh_33" type="car" depart="331">
        <route edges="136822578 1174874706"/>
    </vehicle>
    <vehicle id="veh_123" type="motorcycle" depart="338">
        <route edges="1174874706"/>
    </vehicle>
    <vehicle id="veh_34" type="car" depart="342">
        <route edges="1112806233 4588647 -4588647 -917450542"/>
    </vehicle>
    <vehicle id="veh_124" type="motorcycle" depart="348">
        <route edges="4588647 -4588647 160192389"/>
    </vehicle>
    <vehicle id="veh_35" type="car" depart="354">
        <route edges="4588647 -4588647 -917450542 917450543"/>
    </vehicle>
    <vehicle id="veh_98" type="bicycle" depart="354">
        <route edges="4588647 -4588647 -917450542 1174874706"/>
    </vehicle>
    <vehicle id="veh_36" type="car" depart="358">
        <route edges="1112806233 160192389"/>
    </vehicle>
    <vehicle id="veh_37" type="car" depart="365">
        <route edges="4588647 -4588647 -917450542"/>
    </vehicle>
    <vehicle id="jeepney_5" type="traditional_jeepney" depart="365">
        <route edges="1112806233 4588647"/>
    </vehicle>
    <vehicle id="veh_125" type="motorcycle" depart="367">
        <route edges="136822578 917450542 160192389"/>
    </vehicle>
    <vehicle id="veh_160" type="truck" depart="370">
        <route edges="136822578 917450542 4588647 -4588647"/>
    </vehicle>
    <vehicle id="veh_38" type="car" depart="375">
        <route edges="4588647 -4588647 160192389"/>
    </vehicle>
    <vehicle id="veh_39" type="car" depart="382">
        <route edges="-917450542 917450543"/>
    </vehicle>
    <vehicle id="veh_40" type="car" depart="389">
        <route edges="1174874706"/>
    </vehicle>
    <vehicle id="veh_126" type="motorcycle" depart="390">
        <route edges="-917450542 917450543"/>
    </vehicle>
    <vehicle id="veh_41" type="car" depart="396">
        <route edges="-4588647 4588647"/>
    </vehicle>
    <vehicle id="veh_174" type="bus" depart="400">
        <route edges="4588647 -4588647 -917450542"/>
    </vehicle>
    <vehicle id="veh_42" type="car" depart="405">
        <route edges="-4588647 160192389"/>
    </vehicle>
    <vehicle id="veh_161" type="truck" depart="409">
        <route edges="136822578 917450542 -917450542"/>
    </vehicle>
    <vehicle id="jeepney_6" type="traditional_jeepney" depart="410">
        <route edges="-4588647 -917450542 1174874706"/>
    </vehicle>
    <vehicle id="veh_127" type="motorcycle" depart="411">
        <route edges="4588647 -4588647 -917450542 1174874706"/>
    </vehicle>
    <vehicle id="modernjeepney_4" type="modern_jeepney" depart="413">
        <route edges="1112806233 4588647"/>
    </vehicle>
    <vehicle id="veh_43" type="car" depart="418">
        <route edges="1112806233 4588647 -4588647 -917450542"/>
    </vehicle>
    <vehicle id="veh_44" type="car" depart="427">
        <route edges="-4588647 -917450542 1174874706"/>
    </vehicle>
    <vehicle id="veh_128" type="motorcycle" depart="430">
        <route edges="136822578 1174874706"/>
    </vehicle>
    <vehicle id="veh_45" type="car" depart="435">
        <route edges="-4588647 -917450542"/>
    </vehicle>
    <vehicle id="veh_99" type="bicycle" depart="443">
        <route edges="775437708 917450543"/>
    </vehicle>
    <vehicle id="veh_162" type="truck" depart="443">
        <route edges="4588647 -4588647 -917450542 917450543"/>
    </vehicle>
    <vehicle id="veh_46" type="car" depart="445">
        <route edges="4588647 -4588647 -917450542"/>
    </vehicle>
    <vehicle id="veh_129" type="motorcycle" depart="451">
        <route edges="1112806233 4588647"/>
    </vehicle>
    <vehicle id="veh_47" type="car" depart="456">
        <route edges="1112806233 4588647 -4588647 -917450542 1174874706"/>
    </vehicle>
    <vehicle id="veh_130" type="motorcycle" depart="463">
        <route edges="136822578 917450542 4588647"/>
    </vehicle>
    <vehicle id="veh_48" type="car" depart="465">
        <route edges="1112806233 160192389"/>
    </vehicle>
    <vehicle id="veh_49" type="car" depart="469">
        <route edges="1112806233 4588647"/>
    </vehicle>
    <vehicle id="jeepney_7" type="traditional_jeepney" depart="470">
        <route edges="1112806233 4588647"/>
    </vehicle>
    <vehicle id="veh_50" type="car" depart="476">
        <route edges="-917450542 1174874706"/>
    </vehicle>
    <vehicle id="veh_131" type="motorcycle" depart="485">
        <route edges="1112806233 4588647"/>
    </vehicle>
    <vehicle id="veh_51" type="car" depart="487">
        <route edges="136822578 917450542 160192389"/>
    </vehicle>
    <vehicle id="veh_163" type="truck" depart="488">
        <route edges="1112806233 4588647 -4588647 -917450542 917450543"/>
    </vehicle>
    <vehicle id="veh_52" type="car" depart="494">
        <route edges="-4588647 -917450542 1174874706"/>
    </vehicle>
    <vehicle id="veh_132" type="motorcycle" depart="505">
        <route edges="136822578 917450542 160192389"/>
    </vehicle>
    <vehicle id="veh_53" type="car" depart="508">
        <route edges="1112806233 4588647 -4588647 -917450542"/>
    </vehicle>
    <vehicle id="modernjeepney_5" type="modern_jeepney" depart="510">
        <route edges="-4588647 -917450542 1174874706"/>
    </vehicle>
    <vehicle id="veh_54" type="car" depart="520">
        <route edges="136822578 1174874706"/>
    </vehicle>
    <vehicle id="veh_133" type="motorcycle" depart="522">
        <route edges="1112806233 4588647"/>
    </vehicle>
    <vehicle id="jeepney_8" type="traditional_jeepney" depart="528">
        <route edges="-4588647 -917450542 1174874706"/>
    </vehicle>
    <vehicle id="veh_55" type="car" depart="529">
        <route edges="136822578 917450542 160192389"/>
    </vehicle>
    <vehicle id="veh_164" type="truck" depart="530">
        <route edges="136822578 917450542 -917450542"/>
    </vehicle>
    <vehicle id="veh_56" type="car" depart="535">
        <route edges="1112806233 4588647 -4588647"/>
    </vehicle>
    <vehicle id="veh_100" type="bicycle" depart="537">
        <route edges="1112806233 4588647 -4588647 -917450542 1174874706"/>
    </vehicle>
    <vehicle id="veh_57" type="car" depart="540">
        <route edges="136822578 917450542 160192389"/>
    </vehicle>
    <vehicle id="veh_134" type="motorcycle" depart="542">
        <route edges="775437708 917450543"/>
    </vehicle>
    <vehicle id="veh_58" type="car" depart="547">
        <route edges="136822578 917450542 4588647"/>
    </vehicle>
    <vehicle id="veh_135" type="motorcycle" depart="557">
        <route edges="136822578 917450543"/>
    </vehicle>
    <vehicle id="veh_59" type="car" depart="561">
        <route edges="1112806233 4588647"/>
    </vehicle>
    <vehicle id="veh_60" type="car" depart="567">
        <route edges="4588647 -4588647 -917450542 917450543"/>
    </vehicle>
    <vehicle id="veh_165" type="truck" depart="573">
        <route edges="1174874706"/>
    </vehicle>
    <vehicle id="veh_61" type="car" depart="579">
        <route edges="4588647 -4588647 -917450542 1174874706"/>
    </vehicle>
    <vehicle id="veh_136" type="motorcycle" depart="579">
        <route edges="4588647 -4588647 -917450542"/>
    </vehicle>
    <vehicle id="veh_62" type="car" depart="587">
        <route edges="1112806233 4588647 -4588647"/>
    </vehicle>
    <vehicle id="veh_175" type="bus" depart="590">
        <route edges="1112806233 4588647"/>
    </vehicle>
    <vehicle id="veh_137" type="motorcycle" depart="594">
        <route edges="136822578 917450542 160192389"/>
    </vehicle>
    <vehicle id="modernjeepney_6" type="modern_jeepney" depart="595">
        <route edges="1112806233 4588647"/>
    </vehicle>
    <vehicle id="veh_63" type="car" depart="596">
        <route edges="1112806233 4588647 -4588647 -917450542 1174874706"/>
    </vehicle>
    <vehicle id="jeepney_9" type="traditional_jeepney" depart="600">
        <route edges="1112806233 4588647"/>
    </vehicle>
    <vehicle id="veh_64" type="car" depart="606">
        <route edges="-4588647 -917450542 917450543"/>
    </vehicle>
    <vehicle id="veh_138" type="motorcycle" depart="617">
        <route edges="-917450542 1174874706"/>
    </vehicle>
    <vehicle id="veh_166" type="truck" depart="617">
        <route edges="1112806233 4588647 -4588647 -917450542 1174874706"/>
    </vehicle>
    <vehicle id="veh_101" type="bicycle" depart="620">
        <route edges="-917450542 1174874706"/>
    </vehicle>
    <vehicle id="veh_65" type="car" depart="624">
        <route edges="-4588647 -917450542 917450543"/>
    </vehicle>
    <vehicle id="veh_66" type="car" depart="629">
        <route edges="4588647 -4588647 -917450542 1174874706"/>
    </vehicle>
    <vehicle id="veh_139" type="motorcycle" depart="635">
        <route edges="1112806233 160192389"/>
    </vehicle>
    <vehicle id="veh_67" type="car" depart="637">
        <route edges="4588647 -4588647 -917450542 1174874706"/>
    </vehicle>
    <vehicle id="veh_68" type="car" depart="643">
        <route edges="136822578 917450542 160192389"/>
    </vehicle>
    <vehicle id="jeepney_10" type="traditional_jeepney" depart="649">
        <route edges="1112806233 4588647"/>
    </vehicle>
    <vehicle id="veh_69" type="car" depart="652">
        <route edges="1112806233 4588647 -4588647"/>
    </vehicle>
    <vehicle id="veh_70" type="car" depart="658">
        <route edges="136822578 917450542 160192389"/>
    </vehicle>
    <vehicle id="veh_140" type="motorcycle" depart="659">
        <route edges="4588647 -4588647 -917450542"/>
    </vehicle>
    <vehicle id="veh_167" type="truck" depart="666">
        <route edges="-4588647 -917450542 1174874706"/>
    </vehicle>
    <vehicle id="veh_71" type="car" depart="668">
        <route edges="136822578 917450542 4588647"/>
    </vehicle>
    <vehicle id="veh_72" type="car" depart="675">
        <route edges="136822578 917450542 -917450542"/>
    </vehicle>
    <vehicle id="modernjeepney_7" type="modern_jeepney" depart="675">
        <route edges="1112806233 4588647"/>
    </vehicle>
    <vehicle id="veh_73" type="car" depart="681">
        <route edges="1112806233 4588647 -4588647"/>
    </vehicle>
    <vehicle id="veh_141" type="motorcycle" depart="681">
        <route edges="4588647 -4588647 -917450542"/>
    </vehicle>
    <vehicle id="veh_74" type="car" depart="687">
        <route edges="1112806233 160192389"/>
    </vehicle>
    <vehicle id="veh_75" type="car" depart="694">
        <route edges="-4588647 -917450542"/>
    </vehicle>
    <vehicle id="veh_142" type="motorcycle" depart="699">
        <route edges="1174874706"/>
    </vehicle>
    <vehicle id="veh_168" type="truck" depart="709">
        <route edges="4588647 -4588647 -917450542 917450543"/>
    </vehicle>
    <vehicle id="veh_76" type="car" depart="711">
        <route edges="-917450542 1174874706"/>
    </vehicle>
    <vehicle id="jeepney_11" type="traditional_jeepney" depart="719">
        <route edges="1112806233 4588647"/>
    </vehicle>
    <vehicle id="veh_77" type="car" depart="723">
        <route edges="136822578 917450542 4588647 -4588647"/>
    </vehicle>
    <vehicle id="veh_102" type="bicycle" depart="723">
        <route edges="1174874706"/>
    </vehicle>
    <vehicle id="veh_143" type="motorcycle" depart="728">
        <route edges="-917450542 1174874706"/>
    </vehicle>
    <vehicle id="veh_78" type="car" depart="737">
        <route edges="-4588647 -917450542 1174874706"/>
    </vehicle>
    <vehicle id="veh_176" type="bus" depart="742">
        <route edges="-4588647 4588647"/>
    </vehicle>
    <vehicle id="veh_144" type="motorcycle" depart="744">
        <route edges="-917450542 1174874706"/>
    </vehicle>
    <vehicle id="veh_169" type="truck" depart="745">
        <route edges="4588647 -4588647 -917450542 1174874706"/>
    </vehicle>
    <vehicle id="veh_79" type="car" depart="747">
        <route edges="-4588647 160192389"/>
    </vehicle>
    <vehicle id="veh_80" type="car" depart="754">
        <route edges="1112806233 4588647 -4588647 -917450542 917450543"/>
    </vehicle>
    <vehicle id="veh_145" type="motorcycle" depart="758">
        <route edges="136822578 917450542 -917450542"/>
    </vehicle>
    <vehicle id="veh_81" type="car" depart="765">
        <route edges="1112806233 4588647 -4588647 -917450542 1174874706"/>
    </vehicle>
    <vehicle id="veh_82" type="car" depart="774">
        <route edges="1112806233 4588647 -4588647 -917450542 1174874706"/>
    </vehicle>
    <vehicle id="veh_146" type="motorcycle" depart="777">
        <route edges="-917450542 917450543"/>
    </vehicle>
    <vehicle id="modernjeepney_8" type="modern_jeepney" depart="777">
        <route edges="-4588647 -917450542 1174874706"/>
    </vehicle>
    <vehicle id="veh_83" type="car" depart="782">
        <route edges="1112806233 4588647 -4588647 -917450542 1174874706"/>
    </vehicle>
    <vehicle id="jeepney_12" type="traditional_jeepney" depart="783">
        <route edges="-4588647 -917450542 1174874706"/>
    </vehicle>
    <vehicle id="veh_84" type="car" depart="794">
        <route edges="136822578 917450542 4588647 -4588647"/>
    </vehicle>
    <vehicle id="veh_147" type="motorcycle" depart="797">
        <route edges="136822578 1174874706"/>
    </vehicle>
    <vehicle id="veh_170" type="truck" depart="798">
        <route edges="136822578 1174874706"/>
    </vehicle>
    <vehicle id="veh_85" type="car" depart="803">
        <route edges="-4588647 160192389"/>
    </vehicle>
    <vehicle id="veh_86" type="car" depart="812">
        <route edges="1174874706"/>
    </vehicle>
    <vehicle id="veh_87" type="car" depart="821">
        <route edges="136822578 917450543"/>
    </vehicle>
    <vehicle id="veh_148" type="motorcycle" depart="824">
        <route edges="1112806233 4588647 -4588647"/>
    </vehicle>
    <vehicle id="veh_88" type="car" depart="832">
        <route edges="136822578 917450542 4588647 -4588647"/>
    </vehicle>
    <vehicle id="veh_103" type="bicycle" depart="834">
        <route edges="-4588647 -917450542 1174874706"/>
    </vehicle>
    <vehicle id="veh_89" type="car" depart="837">
        <route edges="-917450542 1174874706"/>
    </vehicle>
    <vehicle id="veh_149" type="motorcycle" depart="841">
        <route edges="1112806233 4588647 -4588647 -917450542"/>
    </vehicle>
    <vehicle id="veh_171" type="truck" depart="842">
        <route edges="136822578 1174874706"/>
    </vehicle>
    <vehicle id="veh_90" type="car" depart="849">
        <route edges="-917450542 917450543"/>
    </vehicle>
    <vehicle id="jeepney_13" type="traditional_jeepney" depart="849">
        <route edges="1112806233 4588647"/>
    </vehicle>
    <vehicle id="veh_150" type="motorcycle" depart="856">
        <route edges="1112806233 4588647 -4588647 -917450542 917450543"/>
    </vehicle>
    <vehicle id="veh_91" type="car" depart="864">
        <route edges="-4588647 -917450542 917450543"/>
    </vehicle>
    <vehicle id="veh_151" type="motorcycle" depart="874">
        <route edges="1112806233 4588647 -4588647 -917450542 917450543"/>
    </vehicle>
    <vehicle id="veh_92" type="car" depart="877">
        <route edges="1112806233 4588647 -4588647 -917450542"/>
    </vehicle>
    <vehicle id="modernjeepney_9" type="modern_jeepney" depart="879">
        <route edges="-4588647 -917450542 1174874706"/>
    </vehicle>
    <vehicle id="veh_172" type="truck" depart="885">
        <route edges="136822578 1174874706"/>
    </vehicle>
    <vehicle id="veh_93" type="car" depart="890">
        <route edges="1112806233 4588647 -4588647 -917450542"/>
    </vehicle>
    <vehicle id="veh_152" type="motorcycle" depart="891">
        <route edges="1112806233 4588647 -4588647 -917450542"/>
    </vehicle>
    <vehicle id="veh_94" type="car" depart="899">
        <route edges="4588647 -4588647 -917450542 917450543"/>
    </vehicle>
    <vehicle id="veh_201" type="car" depart="910">
        <route edges="4588647 -4588647 -917450542 917450543"/>
    </vehicle>
    <vehicle id="veh_289" type="motorcycle" depart="923">
        <route edges="-4588647 -917450542 1174874706"/>
    </vehicle>
    <vehicle id="veh_202" type="car" depart="927">
        <route edges="4588647 -4588647 -917450542 917450543"/>
    </vehicle>
    <vehicle id="veh_203" type="car" depart="938">
        <route edges="-917450542 917450543"/>
    </vehicle>
    <vehicle id="veh_290" type="motorcycle" depart="945">
        <route edges="1112806233 4588647 -4588647 -917450542"/>
    </vehicle>
    <vehicle id="veh_204" type="car" depart="950">
        <route edges="1112806233 4588647 -4588647 -917450542 1174874706"/>
    </vehicle>
    <vehicle id="jeepney_14" type="traditional_jeepney" depart="959">
        <route edges="-4588647 -917450542 1174874706"/>
    </vehicle>
    <vehicle id="veh_329" type="truck" depart="960">
        <route edges="1112806233 4588647 -4588647 -917450542 917450543"/>
    </vehicle>
    <vehicle id="veh_205" type="car" depart="961">
        <route edges="-917450542 1174874706"/>
    </vehicle>
    <vehicle id="veh_291" type="motorcycle" depart="964">
        <route edges="-4588647 4588647"/>
    </vehicle>
    <vehicle id="veh_206" type="car" depart="971">
        <route edges="4588647 -4588647 -917450542"/>
    </vehicle>
    <vehicle id="veh_207" type="car" depart="988">
        <route edges="4588647 -4588647 -917450542"/>
    </vehicle>
    <vehicle id="modernjeepney_10" type="modern_jeepney" depart="995">
        <route edges="-4588647 -917450542 1174874706"/>
    </vehicle>
    <vehicle id="veh_292" type="motorcycle" depart="997">
        <route edges="1112806233 4588647 -4588647 -917450542 917450543"/>
    </vehicle>
    <vehicle id="veh_208" type="car" depart="1004">
        <route edges="-917450542 1174874706"/>
    </vehicle>
    <vehicle id="veh_281" type="bicycle" depart="1008">
        <route edges="-4588647 160192389"/>
    </vehicle>
    <vehicle id="veh_293" type="motorcycle" depart="1015">
        <route edges="-4588647 -917450542 917450543"/>
    </vehicle>
    <vehicle id="veh_209" type="car" depart="1016">
        <route edges="4588647 -4588647 -917450542"/>
    </vehicle>
    <vehicle id="veh_330" type="truck" depart="1026">
        <route edges="-4588647 -917450542"/>
    </vehicle>
    <vehicle id="veh_210" type="car" depart="1028">
        <route edges="4588647 -4588647 -917450542 1174874706"/>
    </vehicle>
    <vehicle id="jeepney_15" type="traditional_jeepney" depart="1032">
        <route edges="-4588647 -917450542 1174874706"/>
    </vehicle>
    <vehicle id="veh_294" type="motorcycle" depart="1034">
        <route edges="1112806233 4588647 -4588647 -917450542 1174874706"/>
    </vehicle>
    <vehicle id="veh_211" type="car" depart="1039">
        <route edges="4588647 -4588647 -917450542"/>
    </vehicle>
    <vehicle id="veh_295" type="motorcycle" depart="1052">
        <route edges="1112806233 4588647 -4588647 -917450542 917450543"/>
    </vehicle>
    <vehicle id="veh_212" type="car" depart="1057">
        <route edges="-4588647 -917450542 1174874706"/>
    </vehicle>
    <vehicle id="veh_213" type="car" depart="1068">
        <route edges="1174874706"/>
    </vehicle>
    <vehicle id="veh_214" type="car" depart="1075">
        <route edges="1112806233 4588647 -4588647 -917450542 1174874706"/>
    </vehicle>
    <vehicle id="veh_296" type="motorcycle" depart="1075">
        <route edges="4588647 -4588647 160192389"/>
    </vehicle>
    <vehicle id="veh_331" type="truck" depart="1079">
        <route edges="136822578 917450542 -917450542"/>
    </vehicle>
    <vehicle id="veh_343" type="bus" depart="1081">
        <route edges="-4588647 160192389"/>
    </vehicle>
    <vehicle id="veh_215" type="car" depart="1085">
        <route edges="-917450542 917450543"/>
    </vehicle>
    <vehicle id="veh_297" type="motorcycle" depart="1087">
        <route edges="136822578 1174874706"/>
    </vehicle>
    <vehicle id="veh_216" type="car" depart="1094">
        <route edges="-4588647 160192389"/>
    </vehicle>
    <vehicle id="modernjeepney_11" type="modern_jeepney" depart="1104">
        <route edges="1112806233 4588647"/>
    </vehicle>
    <vehicle id="veh_217" type="car" depart="1108">
        <route edges="4588647 -4588647 160192389"/>
    </vehicle>
    <vehicle id="veh_298" type="motorcycle" depart="1109">
        <route edges="136822578 917450543"/>
    </vehicle>
    <vehicle id="veh_218" type="car" depart="1115">
        <route edges="-917450542 1174874706"/>
    </vehicle>
    <vehicle id="veh_219" type="car" depart="1126">
        <route edges="1112806233 4588647 -4588647 -917450542 1174874706"/>
    </vehicle>
    <vehicle id="veh_282" type="bicycle" depart="1126">
        <route edges="1174874706"/>
    </vehicle>
    <vehicle id="jeepney_16" type="traditional_jeepney" depart="1126">
        <route edges="-4588647 -917450542 1174874706"/>
    </vehicle>