<?xml version="1.0" ?>
<routes xmlns:xsi="http://www.w3.org/2001/XMLSchema-instance" xsi:noNamespaceSchemaLocation="http://sumo.dlr.de/xsd/routes_file.xsd">
    <vehicle id="veh_32" type="motorcycle" depart="1">
        <route edges="-4588647 -917450542 1174874706"/>
    </vehicle>
    <vehicle id="veh_33" type="motorcycle" depart="4">
        <route edges="1112806233 160192389"/>
    </vehicle>
    <vehicle id="veh_34" type="motorcycle" depart="6">
        <route edges="136822578 917450542 4588647 -4588647"/>
    </vehicle>
    <vehicle id="veh_35" type="motorcycle" depart="10">
        <route edges="136822578 917450542 4588647"/>
    </vehicle>
    <vehicle id="veh_0" type="car" depart="11">
        <route edges="-4588647 160192389"/>
    </vehicle>
    <vehicle id="jeepney_0" type="traditional_jeepney" depart="13">
        <route edges="1112806233 4588647"/>
    </vehicle>
    <vehicle id="veh_1" type="car" depart="16">
        <route edges="136822578 917450542 4588647 -4588647"/>
    </vehicle>
    <vehicle id="veh_36" type="motorcycle" depart="16">
        <route edges="4588647 -4588647"/>
    </vehicle>
    <vehicle id="veh_156" type="bicycle" depart="20">
        <route edges="136822578 1174874706"/>
    </vehicle>
    <vehicle id="veh_37" type="motorcycle" depart="22">
        <route edges="1174874706"/>
    </vehicle>
    <vehicle id="veh_38" type="motorcycle" depart="24">
        <route edges="1174874706"/>
    </vehicle>
    <vehicle id="jeepney_1" type="traditional_jeepney" depart="24">
        <route edges="1112806233 4588647"/>
    </vehicle>
    <vehicle id="veh_2" type="car" depart="27">
        <route edges="136822578 917450542 -917450542"/>
    </vehicle>
    <vehicle id="veh_39" type="motorcycle" depart="27">
        <route edges="1112806233 4588647 -4588647 -917450542 1174874706"/>
    </vehicle>
    <vehicle id="veh_40" type="motorcycle" depart="30">
        <route edges="-917450542 1174874706"/>
    </vehicle>
    <vehicle id="veh_41" type="motorcycle" depart="30">
        <route edges="-917450542 1174874706"/>
    </vehicle>
    <vehicle id="veh_157" type="bicycle" depart="31">
        <route edges="775437708 917450543"/>
    </vehicle>
    <vehicle id="veh_42" type="motorcycle" depart="33">
        <route edges="-917450542 1174874706"/>
    </vehicle>
    <vehicle id="veh_43" type="motorcycle" depart="34">
        <route edges="1112806233 160192389"/>
    </vehicle>
    <vehicle id="veh_3" type="car" depart="36">
        <route edges="1112806233 4588647 -4588647 -917450542 1174874706"/>
    </vehicle>
    <vehicle id="veh_44" type="motorcycle" depart="38">
        <route edges="136822578 1174874706"/>
    </vehicle>
    <vehicle id="jeepney_2" type="traditional_jeepney" depart="39">
        <route edges="-4588647 -917450542 1174874706"/>
    </vehicle>
    <vehicle id="veh_45" type="motorcycle" depart="44">
        <route edges="-4588647 4588647"/>
    </vehicle>
    <vehicle id="veh_46" type="motorcycle" depart="45">
        <route edges="136822578 917450542 -917450542"/>
    </vehicle>
    <vehicle id="veh_4" type="car" depart="47">
        <route edges="4588647 -4588647 -917450542 917450543"/>
    </vehicle>
    <vehicle id="veh_47" type="motorcycle" depart="49">
        <route edges="-917450542 1174874706"/>
    </vehicle>
    <vehicle id="jeepney_3" type="traditional_jeepney" depart="49">
        <route edges="-4588647 -917450542 1174874706"/>
    </vehicle>
    <vehicle id="veh_48" type="motorcycle" depart="51">
        <route edges="136822578 917450543"/>
    </vehicle>
    <vehicle id="veh_49" type="motorcycle" depart="54">
        <route edges="1112806233 160192389"/>
    </vehicle>
    <vehicle id="veh_158" type="bicycle" depart="54">
        <route edges="4588647 -4588647 160192389"/>
    </vehicle>
    <vehicle id="veh_5" type="car" depart="56">
        <route edges="4588647 -4588647 -917450542"/>
    </vehicle>
    <vehicle id="veh_50" type="motorcycle" depart="57">
        <route edges="136822578 917450542 4588647 -4588647"/>
    </vehicle>
    <vehicle id="veh_51" type="motorcycle" depart="60">
        <route edges="775437708 917450543"/>
    </vehicle>
    <vehicle id="veh_52" type="motorcycle" depart="61">
        <route edges="1174874706"/>
    </vehicle>
    <vehicle id="veh_6" type="car" depart="64">
        <route edges="-4588647 4588647"/>
    </vehicle>
    <vehicle id="veh_53" type="motorcycle" depart="65">
        <route edges="4588647 -4588647 -917450542 917450543"/>
    </vehicle>
    <vehicle id="veh_7" type="car" depart="67">
        <route edges="4588647 -4588647 -917450542 1174874706"/>
    </vehicle>
    <vehicle id="veh_54" type="motorcycle" depart="67">
        <route edges="-917450542 1174874706"/>
    </vehicle>
    <vehicle id="jeepney_4" type="traditional_jeepney" depart="68">
        <route edges="-4588647 -917450542 1174874706"/>
    </vehicle>
    <vehicle id="veh_55" type="motorcycle" depart="72">
        <route edges="1112806233 4588647 -4588647"/>
    </vehicle>
    <vehicle id="veh_128" type="truck" depart="72">
        <route edges="4588647 -4588647 160192389"/>
    </vehicle>
    <vehicle id="veh_8" type="car" depart="73">
        <route edges="1112806233 160192389"/>
    </vehicle>
    <vehicle id="veh_159" type="bicycle" depart="74">
        <route edges="1112806233 160192389"/>
    </vehicle>
    <vehicle id="veh_56" type="motorcycle" depart="75">
        <route edges="136822578 1174874706"/>
    </vehicle>
    <vehicle id="veh_57" type="motorcycle" depart="76">
        <route edges="4588647 -4588647 160192389"/>
    </vehicle>
    <vehicle id="veh_58" type="motorcycle" depart="78">
        <route edges="-4588647 -917450542 1174874706"/>
    </vehicle>
    <vehicle id="veh_9" type="car" depart="79">
        <route edges="-917450542 917450543"/>
    </vehicle>
    <vehicle id="modernjeepney_0" type="modern_jeepney" depart="81">
        <route edges="-4588647 -917450542 1174874706"/>
    </vehicle>
    <vehicle id="veh_59" type="motorcycle" depart="84">
        <route edges="-4588647 -917450542 1174874706"/>
    </vehicle>
    <vehicle id="veh_60" type="motorcycle" depart="85">
        <route edges="4588647 -4588647 -917450542 1174874706"/>
    </vehicle>
    <vehicle id="jeepney_5" type="traditional_jeepney" depart="88">
        <route edges="-4588647 -917450542 1174874706"/>
    </vehicle>
    <vehicle id="veh_61" type="motorcycle" depart="91">
        <route edges="136822578 917450542 4588647"/>
    </vehicle>
    <vehicle id="veh_160" type="bicycle" depart="92">
        <route edges="1174874706"/>
    </vehicle>
    <vehicle id="veh_10" type="car" depart="93">
        <route edges="1112806233 4588647 -4588647"/>
    </vehicle>
    <vehicle id="jeepney_6" type="traditional_jeepney" depart="96">
        <route edges="-4588647 -917450542 1174874706"/>
    </vehicle>
    <vehicle id="veh_62" type="motorcycle" depart="98">
        <route edges="136822578 917450542 4588647 -4588647"/>
    </vehicle>
    <vehicle id="veh_11" type="car" depart="102">
        <route edges="136822578 917450542 4588647 -4588647"/>
    </vehicle>
    <vehicle id="veh_63" type="motorcycle" depart="102">
        <route edges="4588647 -4588647 -917450542 1174874706"/>
    </vehicle>
    <vehicle id="veh_64" type="motorcycle" depart="105">
        <route edges="-917450542 1174874706"/>
    </vehicle>
    <vehicle id="veh_65" type="motorcycle" depart="108">
        <route edges="-4588647 -917450542 917450543"/>
    </vehicle>
    <vehicle id="veh_12" type="car" depart="109">
        <route edges="1112806233 4588647 -4588647 -917450542 1174874706"/>
    </vehicle>
    <vehicle id="jeepney_7" type="traditional_jeepney" depart="110">
        <route edges="1112806233 4588647"/>
    </vehicle>
    <vehicle id="veh_66" type="motorcycle" depart="112">
        <route edges="136822578 917450543"/>
    </vehicle>
    <vehicle id="veh_67" type="motorcycle" depart="112">
        <route edges="1112806233 160192389"/>
    </vehicle>
    <vehicle id="veh_161" type="bicycle" depart="114">
        <route edges="136822578 1174874706"/>
    </vehicle>
    <vehicle id="veh_68" type="motorcycle" depart="115">
        <route edges="1174874706"/>
    </vehicle>
    <vehicle id="veh_69" type="motorcycle" depart="117">
        <route edges="4588647 -4588647 -917450542 1174874706"/>
    </vehicle>
    <vehicle id="veh_13" type="car" depart="118">
        <route edges="136822578 917450543"/>
    </vehicle>
    <vehicle id="veh_70" type="motorcycle" depart="121">
        <route edges="1112806233 160192389"/>
    </vehicle>
    <vehicle id="veh_71" type="motorcycle" depart="124">
        <route edges="-4588647 -917450542 1174874706"/>
    </vehicle>
    <vehicle id="jeepney_8" type="traditional_jeepney" depart="126">
        <route edges="1112806233 4588647"/>
    </vehicle>
    <vehicle id="veh_14" type="car" depart="127">
        <route edges="-917450542 917450543"/>
    </vehicle>
    <vehicle id="veh_72" type="motorcycle" depart="129">
        <route edges="1174874706"/>
    </vehicle>
    <vehicle id="veh_73" type="motorcycle" depart="130">
        <route edges="4588647 -4588647"/>
    </vehicle>
    <vehicle id="veh_74" type="motorcycle" depart="131">
        <route edges="136822578 1174874706"/>
    </vehicle>
    <vehicle id="veh_162" type="bicycle" depart="133">
        <route edges="136822578 917450542 -917450542"/>
    </vehicle>
    <vehicle id="veh_75" type="motorcycle" depart="134">
        <route edges="1112806233 160192389"/>
    </vehicle>
    <vehicle id="veh_76" type="motorcycle" depart="135">
        <route edges="1112806233 160192389"/>
    </vehicle>
    <vehicle id="veh_15" type="car" depart="143">
        <route edges="-4588647 -917450542 1174874706"/>
    </vehicle>
    <vehicle id="veh_77" type="motorcycle" depart="143">
        <route edges="136822578 917450543"/>
    </vehicle>
    <vehicle id="veh_78" type="motorcycle" depart="146">
        <route edges="-4588647 160192389"/>
    </vehicle>
    <vehicle id="veh_79" type="motorcycle" depart="147">
        <route edges="-4588647 -917450542 1174874706"/>
    </vehicle>
    <vehicle id="veh_16" type="car" depart="150">
        <route edges="1112806233 160192389"/>
    </vehicle>
    <vehicle id="veh_80" type="motorcycle" depart="151">
        <route edges="136822578 917450543"/>
    </vehicle>
    <vehicle id="veh_129" type="truck" depart="151">
        <route edges="1112806233 4588647 -4588647 -917450542"/>
    </vehicle>
    <vehicle id="jeepney_9" type="traditional_jeepney" depart="153">
        <route edges="-4588647 -917450542 1174874706"/>
    </vehicle>
    <vehicle id="veh_81" type="motorcycle" depart="154">
        <route edges="1112806233 160192389"/>
    </vehicle>
    <vehicle id="veh_163" type="bicycle" depart="154">
        <route edges="136822578 917450542 160192389"/>
    </vehicle>
    <vehicle id="veh_82" type="motorcycle" depart="155">
        <route edges="-917450542 1174874706"/>
    </vehicle>
    <vehicle id="veh_83" type="motorcycle" depart="157">
        <route edges="-4588647 -917450542 1174874706"/>
    </vehicle>
    <vehicle id="modernjeepney_1" type="modern_jeepney" depart="159">
        <route edges="-4588647 -917450542 1174874706"/>
    </vehicle>
    <vehicle id="veh_84" type="motorcycle" depart="161">
        <route edges="1112806233 4588647 -4588647 -917450542 1174874706"/>
    </vehicle>
    <vehicle id="jeepney_10" type="traditional_jeepney" depart="161">
        <route edges="1112806233 4588647"/>
    </vehicle>
    <vehicle id="veh_17" type="car" depart="163">
        <route edges="4588647 -4588647"/>
    </vehicle>
    <vehicle id="veh_85" type="motorcycle" depart="165">
        <route edges="1112806233 160192389"/>
    </vehicle>
    <vehicle id="veh_86" type="motorcycle" depart="166">
        <route edges="1112806233 160192389"/>
    </vehicle>
    <vehicle id="veh_87" type="motorcycle" depart="169">
        <route edges="1112806233 4588647 -4588647 -917450542 917450543"/>
    </vehicle>
    <vehicle id="veh_164" type="bicycle" depart="169">
        <route edges="1112806233 4588647 -4588647 -917450542 1174874706"/>
    </vehicle>
    <vehicle id="veh_18" type="car" depart="171">
        <route edges="4588647 -4588647 -917450542 1174874706"/>
    </vehicle>
    <vehicle id="veh_88" type="motorcycle" depart="173">
        <route edges="4588647 -4588647 160192389"/>
    </vehicle>
    <vehicle id="veh_89" type="motorcycle" depart="176">
        <route edges="-917450542 1174874706"/>
    </vehicle>
    <vehicle id="jeepney_11" type="traditional_jeepney" depart="177">
        <route edges="1112806233 4588647"/>
    </vehicle>
    <vehicle id="veh_19" type="car" depart="180">
        <route edges="1112806233 4588647 -4588647"/>
    </vehicle>
    <vehicle id="veh_90" type="motorcycle" depart="180">
        <route edges="1174874706"/>
    </vehicle>
    <vehicle id="veh_91" type="motorcycle" depart="183">
        <route edges="4588647 -4588647 160192389"/>
    </vehicle>
    <vehicle id="veh_92" type="motorcycle" depart="186">
        <route edges="136822578 917450543"/>
    </vehicle>
    <vehicle id="veh_93" type="motorcycle" depart="188">
        <route edges="1112806233 4588647"/>
    </vehicle>
    <vehicle id="jeepney_12" type="traditional_jeepney" depart="188">
        <route edges="-4588647 -917450542 1174874706"/>
    </vehicle>
    <vehicle id="veh_94" type="motorcycle" depart="189">
        <route edges="1174874706"/>
    </vehicle>
    <vehicle id="veh_95" type="motorcycle" depart="190">
        <route edges="1112806233 4588647"/>
    </vehicle>
    <vehicle id="veh_96" type="motorcycle" depart="190">
        <route edges="136822578 917450542 160192389"/>
    </vehicle>
    <vehicle id="veh_20" type="car" depart="192">
        <route edges="4588647 -4588647 -917450542 917450543"/>
    </vehicle>
    <vehicle id="veh_97" type="motorcycle" depart="193">
        <route edges="1174874706"/>
    </vehicle>
    <vehicle id="veh_165" type="bicycle" depart="193">
        <route edges="-917450542 917450543"/>
    </vehicle>
    <vehicle id="veh_98" type="motorcycle" depart="195">
        <route edges="-917450542 917450543"/>
    </vehicle>
    <vehicle id="veh_21" type="car" depart="199">
        <route edges="1112806233 160192389"/>
    </vehicle>
    <vehicle id="veh_99" type="motorcycle" depart="201">
        <route edges="-4588647 -917450542"/>
    </vehicle>
    <vehicle id="jeepney_13" type="traditional_jeepney" depart="203">
        <route edges="1112806233 4588647"/>
    </vehicle>
    <vehicle id="veh_100" type="motorcycle" depart="205">
        <route edges="1112806233 160192389"/>
    </vehicle>
    <vehicle id="veh_101" type="motorcycle" depart="208">
        <route edges="1112806233 4588647"/>
    </vehicle>
    <vehicle id="veh_166" type="bicycle" depart="209">
        <route edges="-917450542 1174874706"/>
    </vehicle>
    <vehicle id="veh_102" type="motorcycle" depart="213">
        <route edges="-4588647 -917450542 1174874706"/>
    </vehicle>
    <vehicle id="modernjeepney_2" type="modern_jeepney" depart="216">
        <route edges="-4588647 -917450542 1174874706"/>
    </vehicle>
    <vehicle id="veh_103" type="motorcycle" depart="218">
        <route edges="1112806233 160192389"/>
    </vehicle>
    <vehicle id="veh_22" type="car" depart="219">
        <route edges="136822578 1174874706"/>
    </vehicle>
    <vehicle id="jeepney_14" type="traditional_jeepney" depart="219">
        <route edges="1112806233 4588647"/>
    </vehicle>
    <vehicle id="veh_104" type="motorcycle" depart="221">
        <route edges="-4588647 -917450542"/>
    </vehicle>
    <vehicle id="veh_105" type="motorcycle" depart="223">
        <route edges="1112806233 4588647 -4588647 -917450542"/>
    </vehicle>
    <vehicle id="veh_106" type="motorcycle" depart="226">
        <route edges="-4588647 -917450542"/>
    </vehicle>
    <vehicle id="veh_107" type="motorcycle" depart="227">
        <route edges="-4588647 -917450542"/>
    </vehicle>
    <vehicle id="veh_23" type="car" depart="229">
        <route edges="-917450542 917450543"/>
    </vehicle>
    <vehicle id="jeepney_15" type="traditional_jeepney" depart="233">
        <route edges="-4588647 -917450542 1174874706"/>
    </vehicle>
    <vehicle id="veh_167" type="bicycle" depart="233">
        <route edges="-4588647 -917450542 917450543"/>
    </vehicle>
    <vehicle id="veh_108" type="motorcycle" depart="234">
        <route edges="136822578 917450542 -917450542"/>
    </vehicle>
    <vehicle id="veh_24" type="car" depart="237">
        <route edges="1174874706"/>
    </vehicle>
    <vehicle id="veh_109" type="motorcycle" depart="238">
        <route edges="136822578 917450542 4588647 -4588647"/>
    </vehicle>
    <vehicle id="veh_110" type="motorcycle" depart="239">
        <route edges="1112806233 4588647 -4588647"/>
    </vehicle>
    <vehicle id="veh_25" type="car" depart="244">
        <route edges="1112806233 4588647 -4588647 -917450542 1174874706"/>
    </vehicle>
    <vehicle id="veh_111" type="motorcycle" depart="244">
        <route edges="1174874706"/>
    </vehicle>
    <vehicle id="jeepney_16" type="traditional_jeepney" depart="244">
        <route edges="1112806233 4588647"/>
    </vehicle>
    <vehicle id="veh_130" type="truck" depart="246">
        <route edges="-4588647 -917450542 917450543"/>
    </vehicle>
    <vehicle id="veh_26" type="car" depart="251">
        <route edges="4588647 -4588647 -917450542"/>
    </vehicle>
    <vehicle id="veh_112" type="motorcycle" depart="251">
        <route edges="136822578 917450543"/>
    </vehicle>
    <vehicle id="veh_113" type="motorcycle" depart="255">
        <route edges="136822578 917450542 4588647"/>
    </vehicle>
    <vehicle id="veh_27" type="car" depart="256">
        <route edges="136822578 917450542 4588647"/>
    </vehicle>
    <vehicle id="veh_168" type="bicycle" depart="257">
        <route edges="136822578 917450543"/>
    </vehicle>
    <vehicle id="veh_114" type="motorcycle" depart="258">
        <route edges="4588647 -4588647 -917450542"/>
    </vehicle>
    <vehicle id="veh_115" type="motorcycle" depart="260">
        <route edges="-4588647 -917450542 1174874706"/>
    </vehicle>
    <vehicle id="veh_116" type="motorcycle" depart="262">
        <route edges="-917450542 1174874706"/>
    </vehicle>
    <vehicle id="jeepney_17" type="traditional_jeepney" depart="264">
        <route edges="1112806233 4588647"/>
    </vehicle>
    <vehicle id="veh_117" type="motorcycle" depart="266">
        <route edges="136822578 917450542 4588647 -4588647"/>
    </vehicle>
    <vehicle id="veh_28" type="car" depart="271">
        <route edges="4588647 -4588647 -917450542 917450543"/>
    </vehicle>
    <vehicle id="veh_118" type="motorcycle" depart="271">
        <route edges="1112806233 4588647"/>
    </vehicle>
    <vehicle id="veh_119" type="motorcycle" depart="273">
        <route edges="1112806233 4588647 -4588647 -917450542"/>
    </vehicle>
    <vehicle id="veh_120" type="motorcycle" depart="274">
        <route edges="4588647 -4588647"/>
    </vehicle>
    <vehicle id="modernjeepney_3" type="modern_jeepney" depart="274">
        <route edges="-4588647 -917450542 1174874706"/>
    </vehicle>
    <vehicle id="jeepney_18" type="traditional_jeepney" depart="276">
        <route edges="-4588647 -917450542 1174874706"/>
    </vehicle>
    <vehicle id="veh_121" type="motorcycle" depart="278">
        <route edges="4588647 -4588647 -917450542"/>
    </vehicle>
    <vehicle id="veh_29" type="car" depart="279">
        <route edges="136822578 1174874706"/>
    </vehicle>
    <vehicle id="veh_169" type="bicycle" depart="279">
        <route edges="1112806233 4588647 -4588647 -917450542 1174874706"/>
    </vehicle>
    <vehicle id="veh_122" type="motorcycle" depart="280">
        <route edges="4588647 -4588647 -917450542 917450543"/>
    </vehicle>
    <vehicle id="veh_123" type="motorcycle" depart="281">
        <route edges="1174874706"/>
    </vehicle>
    <vehicle id="veh_124" type="motorcycle" depart="283">
        <route edges="4588647 -4588647"/>
    </vehicle>
    <vehicle id="veh_30" type="car" depart="284">
        <route edges="-4588647 4588647"/>
    </vehicle>
    <vehicle id="veh_125" type="motorcycle" depart="285">
        <route edges="1112806233 4588647 -4588647 -917450542"/>
    </vehicle>
    <vehicle id="jeepney_19" type="traditional_jeepney" depart="285">
        <route edges="-4588647 -917450542 1174874706"/>
    </vehicle>
    <vehicle id="veh_126" type="motorcycle" depart="287">
        <route edges="4588647 -4588647 -917450542"/>
    </vehicle>
    <vehicle id="veh_31" type="car" depart="290">
        <route edges="-917450542 1174874706"/>
    </vehicle>
    <vehicle id="veh_127" type="motorcycle" depart="290">
        <route edges="1112806233 160192389"/>
    </vehicle>
    <vehicle id="jeepney_20" type="traditional_jeepney" depart="293">
        <route edges="1112806233 4588647"/>
    </vehicle>
    <vehicle id="veh_170" type="bicycle" depart="295">
        <route edges="4588647 -4588647 -917450542 1174874706"/>
    </vehicle>
    <vehicle id="veh_227" type="motorcycle" depart="301">
        <route edges="-4588647 160192389"/>
    </vehicle>
    <vehicle id="veh_228" type="motorcycle" depart="301">
        <route edges="1112806233 4588647 -4588647 -917450542 1174874706"/>
    </vehicle>
    <vehicle id="veh_229" type="motorcycle" depart="305">
        <route edges="136822578 917450542 4588647"/>
    </vehicle>
    <vehicle id="veh_171" type="car" depart="307">
        <route edges="-4588647 -917450542"/>
    </vehicle>
    <vehicle id="veh_230" type="motorcycle" depart="311">
        <route edges="-917450542 1174874706"/>
    </vehicle>
    <vehicle id="veh_172" type="car" depart="313">
        <route edges="4588647 -4588647 -917450542 917450543"/>
    </vehicle>
    <vehicle id="veh_231" type="motorcycle" depart="313">
        <route edges="4588647 -4588647 -917450542"/>
    </vehicle>
    <vehicle id="jeepney_21" type="traditional_jeepney" depart="313">
        <route edges="1112806233 4588647"/>
    </vehicle>
    <vehicle id="veh_232" type="motorcycle" depart="319">
        <route edges="1112806233 160192389"/>
    </vehicle>
    <vehicle id="veh_233" type="motorcycle" depart="320">
        <route edges="-4588647 4588647"/>
    </vehicle>
    <vehicle id="veh_234" type="motorcycle" depart="323">
        <route edges="1174874706"/>
    </vehicle>
    <vehicle id="veh_173" type="car" depart="325">
        <route edges="1112806233 4588647 -4588647 -917450542 1174874706"/>
    </vehicle>
    <vehicle id="veh_235" type="motorcycle" depart="327">
        <route edges="136822578 917450542 -917450542"/>
    </vehicle>
    <vehicle id="veh_174" type="car" depart="328">
        <route edges="136822578 917450542 -917450542"/>
    </vehicle>
    <vehicle id="veh_236" type="motorcycle" depart="330">
        <route edges="1174874706"/>
    </vehicle>
    <vehicle id="veh_175" type="car" depart="332">
        <route edges="136822578 917450542 160192389"/>
    </vehicle>
    <vehicle id="veh_237" type="motorcycle" depart="332">
        <route edges="-4588647 -917450542 1174874706"/>
    </vehicle>
    <vehicle id="jeepney_22" type="traditional_jeepney" depart="335">
        <route edges="-4588647 -917450542 1174874706"/>
    </vehicle>
    <vehicle id="veh_176" type="car" depart="337">
        <route edges="4588647 -4588647 160192389"/>
    </vehicle>
    <vehicle id="veh_238" type="motorcycle" depart="337">
        <route edges="4588647 -4588647 -917450542 1174874706"/>
    </vehicle>
    <vehicle id="veh_177" type="car" depart="340">
        <route edges="-4588647 -917450542 1174874706"/>
    </vehicle>
    <vehicle id="veh_239" type="motorcycle" depart="340">
        <route edges="4588647 -4588647"/>
    </vehicle>
    <vehicle id="veh_240" type="motorcycle" depart="342">
        <route edges="136822578 917450542 4588647"/>
    </vehicle>
    <vehicle id="veh_241" type="motorcycle" depart="343">
        <route edges="1112806233 4588647 -4588647 -917450542 1174874706"/>
    </vehicle>
    <vehicle id="veh_242" type="motorcycle" depart="344">
        <route edges="1112806233 4588647 -4588647 -917450542 917450543"/>
    </vehicle>
    <vehicle id="veh_178" type="car" depart="345">
        <route edges="136822578 917450543"/>
    </vehicle>
    <vehicle id="veh_179" type="car" depart="347">
        <route edges="-917450542 1174874706"/>
    </vehicle>
    <vehicle id="veh_243" type="motorcycle" depart="348">
        <route edges="136822578 917450542 4588647 -4588647"/>
    </vehicle>
    <vehicle id="veh_330" type="bicycle" depart="349">
        <route edges="-4588647 -917450542"/>
    </vehicle>
    <vehicle id="veh_244" type="motorcycle" depart="351">
        <route edges="-4588647 -917450542"/>
    </vehicle>
    <vehicle id="veh_180" type="car" depart="353">
        <route edges="1112806233 4588647"/>
    </vehicle>
    <vehicle id="veh_245" type="motorcycle" depart="354">
        <route edges="136822578 917450542 4588647"/>
    </vehicle>
    <vehicle id="jeepney_23" type="traditional_jeepney" depart="354">
        <route edges="-4588647 -917450542 1174874706"/>
    </vehicle>
    <vehicle id="veh_246" type="motorcycle" depart="356">
        <route edges="1112806233 4588647 -4588647 -917450542"/>
    </vehicle>
    <vehicle id="veh_181" type="car" depart="360">
        <route edges="1112806233 4588647"/>
    </vehicle>
    <vehicle id="modernjeepney_4" type="modern_jeepney" depart="360">
        <route edges="-4588647 -917450542 1174874706"/>
    </vehicle>
    <vehicle id="veh_247" type="motorcycle" depart="361">
        <route edges="1112806233 4588647 -4588647 -917450542"/>
    </vehicle>
    <vehicle id="veh_248" type="motorcycle" depart="364">
        <route edges="-4588647 -917450542 917450543"/>
    </vehicle>
    <vehicle id="veh_182" type="car" depart="367">
        <route edges="136822578 917450542 4588647 -4588647"/>
    </vehicle>
    <vehicle id="veh_249" type="motorcycle" depart="368">
        <route edges="136822578 917450542 4588647 -4588647"/>
    </vehicle>
    <vehicle id="veh_250" type="motorcycle" depart="371">
        <route edges="-4588647 -917450542 917450543"/>
    </vehicle>
    <vehicle id="veh_183" type="car" depart="372">
        <route edges="1112806233 4588647 -4588647 -917450542 1174874706"/>
    </vehicle>
    <vehicle id="veh_251" type="motorcycle" depart="374">
        <route edges="136822578 917450542 4588647 -4588647"/>
    </vehicle>
    <vehicle id="jeepney_24" type="traditional_jeepney" depart="374">
        <route edges="-4588647 -917450542 1174874706"/>
    </vehicle>
    <vehicle id="veh_184" type="car" depart="375">
        <route edges="775437708 917450543"/>
    </vehicle>
    <vehicle id="veh_252" type="motorcycle" depart="377">
        <route edges="4588647 -4588647 -917450542 1174874706"/>
    </vehicle>
    <vehicle id="veh_253" type="motorcycle" depart="380">
        <route edges="1174874706"/>
    </vehicle>
    <vehicle id="veh_185" type="car" depart="381">
        <route edges="775437708 917450543"/>
    </vehicle>
    <vehicle id="veh_254" type="motorcycle" depart="382">
        <route edges="-4588647 4588647"/>
    </vehicle>
    <vehicle id="veh_331" type="bicycle" depart="383">
        <route edges="4588647 -4588647"/>
    </vehicle>
    <vehicle id="veh_186" type="car" depart="385">
        <route edges="136822578 917450542 4588647"/>
    </vehicle>
    <vehicle id="veh_255" type="motorcycle" depart="385">
        <route edges="1112806233 4588647 -4588647 -917450542 1174874706"/>
    </vehicle>
    <vehicle id="jeepney_25" type="traditional_jeepney" depart="388">
        <route edges="1112806233 4588647"/>
    </vehicle>
    <vehicle id="veh_187" type="car" depart="390">
        <route edges="-4588647 -917450542 1174874706"/>
    </vehicle>
    <vehicle id="veh_256" type="motorcycle" depart="390">
        <route edges="4588647 -4588647 -917450542"/>
    </vehicle>
    <vehicle id="veh_257" type="motorcycle" depart="392">
        <route edges="136822578 917450542 160192389"/>
    </vehicle>
    <vehicle id="veh_188" type="car" depart="394">
        <route edges="-4588647 4588647"/>
    </vehicle>
    <vehicle id="veh_258" type="motorcycle" depart="398">
        <route edges="4588647 -4588647"/>
    </vehicle>
    <vehicle id="veh_189" type="car" depart="400">
        <route edges="4588647 -4588647 -917450542"/>
    </vehicle>
    <vehicle id="veh_259" type="motorcycle" depart="403">
        <route edges="4588647 -4588647 -917450542 1174874706"/>
    </vehicle>
    <vehicle id="veh_190" type="car" depart="407">
        <route edges="4588647 -4588647"/>
    </vehicle>
    <vehicle id="veh_260" type="motorcycle" depart="408">
        <route edges="-4588647 -917450542 1174874706"/>
    </vehicle>
    <vehicle id="veh_191" type="car" depart="411">
        <route edges="-917450542 1174874706"/>
    </vehicle>
    <vehicle id="jeepney_26" type="traditional_jeepney" depart="411">
        <route edges="-4588647 -917450542 1174874706"/>
    </vehicle>
    <vehicle id="veh_261" type="motorcycle" depart="414">
        <route edges="-4588647 4588647"/>
    </vehicle>
    <vehicle id="veh_192" type="car" depart="416">
        <route edges="4588647 -4588647"/>
    </vehicle>
    <vehicle id="modernjeepney_5" type="modern_jeepney" depart="416">
        <route edges="-4588647 -917450542 1174874706"/>
    </vehicle>
    <vehicle id="veh_193" type="car" depart="420">
        <route edges="1112806233 4588647 -4588647"/>
    </vehicle>
    <vehicle id="veh_262" type="motorcycle" depart="420">
        <route edges="4588647 -4588647 -917450542 917450543"/>
    </vehicle>
    <vehicle id="veh_263" type="motorcycle" depart="423">
        <route edges="1112806233 4588647 -4588647 -917450542"/>
    </vehicle>