<?xml version="1.0" ?>
<routes xmlns:xsi="http://www.w3.org/2001/XMLSchema-instance" xsi:noNamespaceSchemaLocation="http://sumo.dlr.de/xsd/routes_file.xsd">
    <vehicle id="veh_0" type="car" depart="13">
        <route edges="1112806233 160192389"/>
    </vehicle>
    <vehicle id="veh_108" type="motorcycle" depart="13">
        <route edges="136822578 917450542 160192389"/>
    </vehicle>
    <vehicle id="veh_1" type="car" depart="20">
        <route edges="1174874706"/>
    </vehicle>
    <vehicle id="veh_2" type="car" depart="28">
        <route edges="1112806233 4588647 -4588647 -917450542 1174874706"/>
    </vehicle>
    <vehicle id="veh_109" type="motorcycle" depart="33">
        <route edges="136822578 917450542 4588647"/>
    </vehicle>
    <vehicle id="veh_3" type="car" depart="35">
        <route edges="1112806233 4588647 -4588647 -917450542 1174874706"/>
    </vehicle>
    <vehicle id="veh_4" type="car" depart="40">
        <route edges="136822578 917450542 160192389"/>
    </vehicle>
    <vehicle id="veh_110" type="motorcycle" depart="45">
        <route edges="-4588647 -917450542 1174874706"/>
    </vehicle>
    <vehicle id="veh_5" type="car" depart="46">
        <route edges="-4588647 4588647"/>
    </vehicle>
    <vehicle id="veh_158" type="truck" depart="52">
        <route edges="136822578 917450542 4588647 -4588647"/>
    </vehicle>
    <vehicle id="veh_6" type="car" depart="55">
        <route edges="-917450542 1174874706"/>
    </vehicle>
    <vehicle id="veh_7" type="car" depart="62">
        <route edges="1112806233 4588647 -4588647"/>
    </vehicle>
    <vehicle id="veh_111" type="motorcycle" depart="67">
        <route edges="1174874706"/>
    </vehicle>
    <vehicle id="veh_8" type="car" depart="69">
        <route edges="136822578 917450542 4588647"/>
    </vehicle>
    <vehicle id="veh_98" type="bicycle" depart="73">
        <route edges="136822578 1174874706"/>
    </vehicle>
    <vehicle id="jeepney_0" type="traditional_jeepney" depart="73">
        <route edges="-4588647 -917450542 1174874706"/>
    </vehicle>
    <vehicle id="veh_9" type="car" depart="78">
        <route edges="-4588647 4588647"/>
    </vehicle>
    <vehicle id="veh_10" type="car" depart="83">
        <route edges="1112806233 4588647 -4588647 -917450542 917450543"/>
    </vehicle>
    <vehicle id="veh_112" type="motorcycle" depart="85">
        <route edges="4588647 -4588647"/>
    </vehicle>
    <vehicle id="modernjeepney_0" type="modern_jeepney" depart="94">
        <route edges="-4588647 -917450542 1174874706"/>
    </vehicle>
    <vehicle id="veh_11" type="car" depart="95">
        <route edges="-4588647 -917450542 917450543"/>
    </vehicle>
    <vehicle id="veh_113" type="motorcycle" depart="96">
        <route edges="1112806233 160192389"/>
    </vehicle>
    <vehicle id="veh_12" type="car" depart="103">
        <route edges="136822578 917450542 -917450542"/>
    </vehicle>
    <vehicle id="veh_159" type="truck" depart="108">
        <route edges="1112806233 160192389"/>
    </vehicle>
    <vehicle id="veh_13" type="car" depart="111">
        <route edges="-4588647 4588647"/>
    </vehicle>
    <vehicle id="veh_114" type="motorcycle" depart="112">
        <route edges="-917450542 917450542 4588647 -4588647"/>
    </vehicle>
    <vehicle id="veh_14" type="car" depart="120">
        <route edges="4588647 -4588647"/>
    </vehicle>
    <vehicle id="jeepney_1" type="traditional_jeepney" depart="120">
        <route edges="1112806233 4588647"/>
    </vehicle>
    <vehicle id="veh_15" type="car" depart="132">
        <route edges="136822578 917450542 -917450542"/>
    </vehicle>
    <vehicle id="veh_115" type="motorcycle" depart="133">
        <route edges="136822578 917450542 160192389"/>
    </vehicle>
    <vehicle id="veh_16" type="car" depart="138">
        <route edges="1112806233 4588647 -4588647"/>
    </vehicle>
    <vehicle id="veh_116" type="motorcycle" depart="146">
        <route edges="-4588647 160192389"/>
    </vehicle>
    <vehicle id="veh_17" type="car" depart="151">
        <route edges="-4588647 4588647"/>
    </vehicle>
    <vehicle id="veh_160" type="truck" depart="157">
        <route edges="136822578 917450542 -917450542"/>
    </vehicle>
    <vehicle id="veh_117" type="motorcycle" depart="160">
        <route edges="1112806233 4588647 -4588647 -917450542"/>
    </vehicle>
    <vehicle id="veh_99" type="bicycle" depart="161">
        <route edges="-917450542 1174874706"/>
    </vehicle>
    <vehicle id="veh_18" type="car" depart="163">
        <route edges="4588647 -4588647 -917450542 1174874706"/>
    </vehicle>
    <vehicle id="veh_19" type="car" depart="173">
        <route edges="-4588647 4588647"/>
    </vehicle>
    <vehicle id="jeepney_2" type="traditional_jeepney" depart="174">
        <route edges="-4588647 -917450542 1174874706"/>
    </vehicle>
    <vehicle id="veh_20" type="car" depart="177">
        <route edges="-917450542 1174874706"/>
    </vehicle>
    <vehicle id="veh_118" type="motorcycle" depart="177">
        <route edges="136822578 917450542 4588647 -4588647"/>
    </vehicle>
    <vehicle id="modernjeepney_1" type="modern_jeepney" depart="186">
        <route edges="-4588647 -917450542 1174874706"/>
    </vehicle>
    <vehicle id="veh_177" type="bus" depart="190">
        <route edges="-917450542 1174874706"/>
    </vehicle>
    <vehicle id="veh_21" type="car" depart="192">
        <route edges="136822578 917450542 4588647 -4588647"/>
    </vehicle>
    <vehicle id="veh_119" type="motorcycle" depart="197">
        <route edges="1112806233 4588647 -4588647"/>
    </vehicle>
    <vehicle id="veh_161" type="truck" depart="198">
        <route edges="-917450542 1174874706"/>
    </vehicle>
    <vehicle id="veh_22" type="car" depart="201">
        <route edges="-4588647 -917450542 1174874706"/>
    </vehicle>
    <vehicle id="veh_23" type="car" depart="209">
        <route edges="-917450542 917450542 4588647 -4588647"/>
    </vehicle>
    <vehicle id="veh_120" type="motorcycle" depart="214">
        <route edges="1174874706"/>
    </vehicle>
    <vehicle id="veh_24" type="car" depart="216">
        <route edges="1112806233 4588647 -4588647 -917450542 1174874706"/>
    </vehicle>
    <vehicle id="veh_25" type="car" depart="226">
        <route edges="136822578 917450542 160192389"/>
    </vehicle>
    <vehicle id="veh_121" type="motorcycle" depart="231">
        <route edges="1112806233 4588647 -4588647 -917450542"/>
    </vehicle>
    <vehicle id="jeepney_3" type="traditional_jeepney" depart="235">
        <route edges="-4588647 -917450542 1174874706"/>
    </vehicle>
    <vehicle id="veh_26" type="car" depart="236">
        <route edges="136822578 1174874706"/>
    </vehicle>
    <vehicle id="veh_122" type="motorcycle" depart="240">
        <route edges="775437708 917450543"/>
    </vehicle>
    <vehicle id="veh_162" type="truck" depart="241">
        <route edges="-917450542 1174874706"/>
    </vehicle>
    <vehicle id="veh_27" type="car" depart="245">
        <route edges="1112806233 4588647 -4588647 -917450542 1174874706"/>
    </vehicle>
    <vehicle id="veh_28" type="car" depart="256">
        <route edges="136822578 917450542 4588647"/>
    </vehicle>
    <vehicle id="veh_100" type="bicycle" depart="257">
        <route edges="1174874706"/>
    </vehicle>
    <vehicle id="veh_123" type="motorcycle" depart="259">
        <route edges="1174874706"/>
    </vehicle>
    <vehicle id="veh_29" type="car" depart="268">
        <route edges="1112806233 4588647 -4588647 -917450542 1174874706"/>
    </vehicle>
    <vehicle id="veh_124" type="motorcycle" depart="269">
        <route edges="-917450542 917450543"/>
    </vehicle>
    <vehicle id="veh_30" type="car" depart="278">
        <route edges="136822578 917450543"/>
    </vehicle>
    <vehicle id="modernjeepney_2" type="modern_jeepney" depart="280">
        <route edges="-4588647 -917450542 1174874706"/>
    </vehicle>
    <vehicle id="veh_163" type="truck" depart="285">
        <route edges="136822578 917450542 4588647"/>
    </vehicle>
    <vehicle id="veh_31" type="car" depart="286">
        <route edges="4588647 -4588647 -917450542 917450543"/>
    </vehicle>
    <vehicle id="veh_125" type="motorcycle" depart="286">
        <route edges="1112806233 4588647 -4588647 -917450542"/>
    </vehicle>
    <vehicle id="veh_32" type="car" depart="294">
        <route edges="136822578 917450542 4588647"/>
    </vehicle>
    <vehicle id="jeepney_4" type="traditional_jeepney" depart="296">
        <route edges="1112806233 4588647"/>
    </vehicle>
    <vehicle id="veh_33" type="car" depart="300">
        <route edges="136822578 917450542 160192389"/>
    </vehicle>
    <vehicle id="veh_126" type="motorcycle" depart="303">
        <route edges="-917450542 1174874706"/>
    </vehicle>
    <vehicle id="veh_34" type="car" depart="311">
        <route edges="4588647 -4588647 -917450542 1174874706"/>
    </vehicle>
    <vehicle id="veh_127" type="motorcycle" depart="318">
        <route edges="4588647 -4588647 -917450542 1174874706"/>
    </vehicle>
    <vehicle id="veh_35" type="car" depart="327">
        <route edges="1112806233 4588647 -4588647 -917450542 1174874706"/>
    </vehicle>
    <vehicle id="veh_164" type="truck" depart="328">
        <route edges="-4588647 -917450542"/>
    </vehicle>
    <vehicle id="veh_36" type="car" depart="334">
        <route edges="-917450542 1174874706"/>
    </vehicle>
    <vehicle id="veh_128" type="motorcycle" depart="336">
        <route edges="-4588647 -917450542 917450543"/>
    </vehicle>
    <vehicle id="veh_101" type="bicycle" depart="337">
        <route edges="4588647 -4588647 -917450542 917450543"/>
    </vehicle>
    <vehicle id="veh_37" type="car" depart="344">
        <route edges="-917450542 917450542 4588647"/>
    </vehicle>
    <vehicle id="veh_129" type="motorcycle" depart="351">
        <route edges="4588647 -4588647 160192389"/>
    </vehicle>
    <vehicle id="jeepney_5" type="traditional_jeepney" depart="351">
        <route edges="-4588647 -917450542 1174874706"/>
    </vehicle>
    <vehicle id="veh_38" type="car" depart="352">
        <route edges="4588647 -4588647 -917450542 1174874706"/>
    </vehicle>
    <vehicle id="modernjeepney_3" type="modern_jeepney" depart="360">
        <route edges="1112806233 4588647"/>
    </vehicle>
    <vehicle id="veh_39" type="car" depart="367">
        <route edges="775437708 917450543"/>
    </vehicle>
    <vehicle id="veh_130" type="motorcycle" depart="367">
        <route edges="-4588647 -917450542 1174874706"/>
    </vehicle>
    <vehicle id="veh_165" type="truck" depart="368">
        <route edges="-4588647 -917450542 1174874706"/>
    </vehicle>
    <vehicle id="veh_40" type="car" depart="374">
        <route edges="136822578 1174874706"/>
    </vehicle>
    <vehicle id="veh_178" type="bus" depart="377">
        <route edges="4588647 -4588647"/>
    </vehicle>
    <vehicle id="veh_41" type="car" depart="383">
        <route edges="-4588647 -917450542 1174874706"/>
    </vehicle>
    <vehicle id="veh_131" type="motorcycle" depart="384">
        <route edges="4588647 -4588647 -917450542 1174874706"/>
    </vehicle>
    <vehicle id="veh_42" type="car" depart="392">
        <route edges="775437708 917450543"/>
    </vehicle>
    <vehicle id="veh_43" type="car" depart="401">
        <route edges="136822578 917450543"/>
    </vehicle>
    <vehicle id="veh_132" type="motorcycle" depart="402">
        <route edges="1112806233 4588647 -4588647 -917450542"/>
    </vehicle>
    <vehicle id="veh_44" type="car" depart="407">
        <route edges="-917450542 917450542 4588647 -4588647"/>
    </vehicle>
    <vehicle id="veh_45" type="car" depart="417">
        <route edges="-917450542 1174874706"/>
    </vehicle>
    <vehicle id="jeepney_6" type="traditional_jeepney" depart="417">
        <route edges="1112806233 4588647"/>
    </vehicle>
    <vehicle id="veh_166" type="truck" depart="421">
        <route edges="1112806233 4588647 -4588647"/>
    </vehicle>
    <vehicle id="veh_133" type="motorcycle" depart="423">
        <route edges="136822578 1174874706"/>
    </vehicle>
    <vehicle id="veh_46" type="car" depart="425">
        <route edges="136822578 917450543"/>
    </vehicle>
    <vehicle id="veh_102" type="bicycle" depart="427">
        <route edges="4588647 -4588647 160192389"/>
    </vehicle>
    <vehicle id="veh_47" type="car" depart="431">
        <route edges="1112806233 160192389"/>
    </vehicle>
    <vehicle id="veh_134" type="motorcycle" depart="440">
        <route edges="136822578 1174874706"/>
    </vehicle>
    <vehicle id="veh_48" type="car" depart="443">
        <route edges="1112806233 4588647"/>
    </vehicle>
    <vehicle id="veh_135" type="motorcycle" depart="452">
        <route edges="4588647 -4588647 -917450542"/>
    </vehicle>
    <vehicle id="veh_49" type="car" depart="453">
        <route edges="136822578 917450542 4588647 -4588647"/>
    </vehicle>
    <vehicle id="modernjeepney_4" type="modern_jeepney" depart="460">
        <route edges="1112806233 4588647"/>
    </vehicle>
    <vehicle id="veh_50" type="car" depart="465">
        <route edges="4588647 -4588647 160192389"/>
    </vehicle>
    <vehicle id="veh_167" type="truck" depart="468">
        <route edges="1112806233 4588647"/>
    </vehicle>
    <vehicle id="veh_136" type="motorcycle" depart="474">
        <route edges="-917450542 1174874706"/>
    </vehicle>
    <vehicle id="jeepney_7" type="traditional_jeepney" depart="478">
        <route edges="-4588647 -917450542 1174874706"/>
    </vehicle>
    <vehicle id="veh_51" type="car" depart="480">
        <route edges="1174874706"/>
    </vehicle>
    <vehicle id="veh_52" type="car" depart="491">
        <route edges="1112806233 160192389"/>
    </vehicle>
    <vehicle id="veh_53" type="car" depart="499">
        <route edges="-917450542 1174874706"/>
    </vehicle>
    <vehicle id="veh_137" type="motorcycle" depart="501">
        <route edges="4588647 -4588647 -917450542 1174874706"/>
    </vehicle>
    <vehicle id="veh_54" type="car" depart="507">
        <route edges="1112806233 4588647 -4588647"/>
    </vehicle>
    <vehicle id="veh_103" type="bicycle" depart="521">
        <route edges="-917450542 1174874706"/>
    </vehicle>
    <vehicle id="veh_55" type="car" depart="523">
        <route edges="4588647 -4588647 160192389"/>
    </vehicle>
    <vehicle id="veh_138" type="motorcycle" depart="523">
        <route edges="4588647 -4588647 -917450542 1174874706"/>
    </vehicle>
    <vehicle id="veh_56" type="car" depart="530">
        <route edges="4588647 -4588647 -917450542 1174874706"/>
    </vehicle>
    <vehicle id="veh_168" type="truck" depart="531">
        <route edges="136822578 1174874706"/>
    </vehicle>
    <vehicle id="veh_57" type="car" depart="540">
        <route edges="4588647 -4588647 160192389"/>
    </vehicle>
    <vehicle id="veh_139" type="motorcycle" depart="540">
        <route edges="136822578 917450542 4588647"/>
    </vehicle>
    <vehicle id="jeepney_8" type="traditional_jeepney" depart="541">
        <route edges="1112806233 4588647"/>
    </vehicle>
    <vehicle id="veh_179" type="bus" depart="544">
        <route edges="-917450542 1174874706"/>
    </vehicle>
    <vehicle id="veh_58" type="car" depart="548">
        <route edges="1112806233 4588647 -4588647 -917450542"/>
    </vehicle>
    <vehicle id="veh_59" type="car" depart="557">
        <route edges="-917450542 1174874706"/>
    </vehicle>
    <vehicle id="veh_140" type="motorcycle" depart="562">
        <route edges="4588647 -4588647 -917450542 1174874706"/>
    </vehicle>
    <vehicle id="modernjeepney_5" type="modern_jeepney" depart="562">
        <route edges="1112806233 4588647"/>
    </vehicle>
    <vehicle id="veh_60" type="car" depart="566">
        <route edges="-4588647 4588647"/>
    </vehicle>
    <vehicle id="veh_61" type="car" depart="570">
        <route edges="-917450542 1174874706"/>
    </vehicle>
    <vehicle id="veh_62" type="car" depart="576">
        <route edges="136822578 917450542 160192389"/>
    </vehicle>
    <vehicle id="veh_169" type="truck" depart="577">
        <route edges="1112806233 160192389"/>
    </vehicle>
    <vehicle id="jeepney_9" type="traditional_jeepney" depart="581">
        <route edges="-4588647 -917450542 1174874706"/>
    </vehicle>
    <vehicle id="veh_141" type="motorcycle" depart="585">
        <route edges="1174874706"/>
    </vehicle>
    <vehicle id="veh_63" type="car" depart="588">
        <route edges="-4588647 4588647"/>
    </vehicle>
    <vehicle id="veh_64" type="car" depart="595">
        <route edges="-917450542 917450542 4588647"/>
    </vehicle>
    <vehicle id="veh_104" type="bicycle" depart="599">
        <route edges="1112806233 4588647 -4588647"/>
    </vehicle>
    <vehicle id="veh_65" type="car" depart="608">
        <route edges="-4588647 -917450542 1174874706"/>
    </vehicle>
    <vehicle id="veh_142" type="motorcycle" depart="608">
        <route edges="1112806233 160192389"/>
    </vehicle>
    <vehicle id="veh_170" type="truck" depart="617">
        <route edges="-4588647 -917450542 917450543"/>
    </vehicle>
    <vehicle id="veh_66" type="car" depart="618">
        <route edges="1112806233 4588647 -4588647 -917450542"/>
    </vehicle>
    <vehicle id="veh_67" type="car" depart="627">
        <route edges="136822578 917450542 4588647 -4588647"/>
    </vehicle>
    <vehicle id="veh_143" type="motorcycle" depart="628">
        <route edges="-4588647 -917450542 1174874706"/>
    </vehicle>
    <vehicle id="veh_68" type="car" depart="640">
        <route edges="1112806233 4588647"/>
    </vehicle>
    <vehicle id="veh_144" type="motorcycle" depart="647">
        <route edges="4588647 -4588647 -917450542"/>
    </vehicle>
    <vehicle id="veh_69" type="car" depart="648">
        <route edges="-4588647 -917450542 917450543"/>
    </vehicle>
    <vehicle id="jeepney_10" type="traditional_jeepney" depart="649">
        <route edges="-4588647 -917450542 1174874706"/>
    </vehicle>
    <vehicle id="veh_70" type="car" depart="652">
        <route edges="1112806233 4588647 -4588647 -917450542 917450543"/>
    </vehicle>
    <vehicle id="modernjeepney_6" type="modern_jeepney" depart="654">
        <route edges="1112806233 4588647"/>
    </vehicle>
    <vehicle id="veh_71" type="car" depart="659">
        <route edges="1112806233 4588647 -4588647 -917450542"/>
    </vehicle>
    <vehicle id="veh_145" type="motorcycle" depart="663">
        <route edges="4588647 -4588647 -917450542 1174874706"/>
    </vehicle>
    <vehicle id="veh_171" type="truck" depart="666">
        <route edges="4588647 -4588647"/>
    </vehicle>
    <vehicle id="veh_72" type="car" depart="667">
        <route edges="-4588647 -917450542 1174874706"/>
    </vehicle>
    <vehicle id="veh_73" type="car" depart="672">
        <route edges="1112806233 4588647 -4588647 -917450542 1174874706"/>
    </vehicle>
    <vehicle id="veh_74" type="car" depart="677">
        <route edges="1112806233 4588647 -4588647 -917450542 1174874706"/>
    </vehicle>
    <vehicle id="veh_146" type="motorcycle" depart="684">
        <route edges="-4588647 -917450542"/>
    </vehicle>
    <vehicle id="veh_75" type="car" depart="686">
        <route edges="4588647 -4588647 -917450542 917450543"/>
    </vehicle>
    <vehicle id="veh_105" type="bicycle" depart="688">
        <route edges="1112806233 4588647 -4588647 -917450542 1174874706"/>
    </vehicle>
    <vehicle id="veh_76" type="car" depart="695">
        <route edges="136822578 1174874706"/>
    </vehicle>
    <vehicle id="veh_77" type="car" depart="700">
        <route edges="-4588647 160192389"/>
    </vehicle>
    <vehicle id="jeepney_11" type="traditional_jeepney" depart="705">
        <route edges="-4588647 -917450542 1174874706"/>
    </vehicle>
    <vehicle id="veh_147" type="motorcycle" depart="711">
        <route edges="4588647 -4588647 -917450542 1174874706"/>
    </vehicle>
    <vehicle id="veh_172" type="truck" depart="712">
        <route edges="136822578 917450542 -917450542"/>
    </vehicle>
    <vehicle id="veh_78" type="car" depart="713">
        <route edges="1174874706"/>
    </vehicle>
    <vehicle id="veh_79" type="car" depart="729">
        <route edges="136822578 917450543"/>
    </vehicle>
    <vehicle id="veh_180" type="bus" depart="733">
        <route edges="136822578 1174874706"/>
    </vehicle>
    <vehicle id="veh_148" type="motorcycle" depart="735">
        <route edges="1112806233 4588647 -4588647 -917450542 1174874706"/>
    </vehicle>
    <vehicle id="veh_80" type="car" depart="740">
        <route edges="-4588647 -917450542 1174874706"/>
    </vehicle>
    <vehicle id="modernjeepney_7" type="modern_jeepney" depart="748">
        <route edges="1112806233 4588647"/>
    </vehicle>
    <vehicle id="veh_81" type="car" depart="749">
        <route edges="-917450542 1174874706"/>
    </vehicle>
    <vehicle id="veh_82" type="car" depart="760">
        <route edges="136822578 917450543"/>
    </vehicle>
    <vehicle id="jeepney_12" type="traditional_jeepney" depart="762">
        <route edges="1112806233 4588647"/>
    </vehicle>
    <vehicle id="veh_83" type="car" depart="763">
        <route edges="136822578 917450542 -917450542"/>
    </vehicle>
    <vehicle id="veh_149" type="motorcycle" depart="765">
        <route edges="136822578 917450542 4588647 -4588647"/>
    </vehicle>
    <vehicle id="veh_173" type="truck" depart="766">
        <route edges="-4588647 160192389"/>
    </vehicle>
    <vehicle id="veh_84" type="car" depart="774">
        <route edges="136822578 917450542 160192389"/>
    </vehicle>
    <vehicle id="veh_106" type="bicycle" depart="774">
        <route edges="136822578 917450542 160192389"/>
    </vehicle>
    <vehicle id="veh_85" type="car" depart="777">
        <route edges="1174874706"/>
    </vehicle>
    <vehicle id="veh_150" type="motorcycle" depart="785">
        <route edges="1112806233 4588647 -4588647 -917450542 1174874706"/>
    </vehicle>
    <vehicle id="veh_86" type="car" depart="787">
        <route edges="1112806233 160192389"/>
    </vehicle>
    <vehicle id="veh_87" type="car" depart="794">
        <route edges="-917450542 917450542 160192389"/>
    </vehicle>
    <vehicle id="veh_174" type="truck" depart="802">
        <route edges="1174874706"/>
    </vehicle>
    <vehicle id="veh_151" type="motorcycle" depart="804">
        <route edges="1112806233 4588647 -4588647 -917450542 1174874706"/>
    </vehicle>
    <vehicle id="veh_88" type="car" depart="807">
        <route edges="-4588647 -917450542"/>
    </vehicle>
    <vehicle id="veh_89" type="car" depart="814">
        <route edges="775437708 917450543"/>
    </vehicle>
    <vehicle id="veh_152" type="motorcycle" depart="822">
        <route edges="-4588647 -917450542 917450543"/>
    </vehicle>
    <vehicle id="veh_90" type="car" depart="823">
        <route edges="-917450542 917450542 4588647 -4588647"/>
    </vehicle>
    <vehicle id="veh_91" type="car" depart="829">
        <route edges="-4588647 4588647"/>
    </vehicle>
    <vehicle id="modernjeepney_8" type="modern_jeepney" depart="832">
        <route edges="-4588647 -917450542 1174874706"/>
    </vehicle>
    <vehicle id="jeepney_13" type="traditional_jeepney" depart="839">
        <route edges="-4588647 -917450542 1174874706"/>
    </vehicle>
    <vehicle id="veh_92" type="car" depart="841">
        <route edges="136822578 917450543"/>
    </vehicle>
    <vehicle id="veh_153" type="motorcycle" depart="842">
        <route edges="1174874706"/>
    </vehicle>
    <vehicle id="veh_175" type="truck" depart="850">
        <route edges="136822578 917450542 160192389"/>
    </vehicle>
    <vehicle id="veh_93" type="car" depart="852">
        <route edges="136822578 917450542 4588647"/>
    </vehicle>
    <vehicle id="veh_154" type="motorcycle" depart="853">
        <route edges="136822578 917450543"/>
    </vehicle>
    <vehicle id="veh_155" type="motorcycle" depart="862">
        <route edges="136822578 917450542 4588647"/>
    </vehicle>
    <vehicle id="veh_107" type="bicycle" depart="864">
        <route edges="1112806233 4588647 -4588647 -917450542 1174874706"/>
    </vehicle>
    <vehicle id="veh_94" type="car" depart="866">
        <route edges="136822578 1174874706"/>
    </vehicle>
    <vehicle id="veh_95" type="car" depart="872">
        <route edges="136822578 917450542 4588647 -4588647"/>
    </vehicle>
    <vehicle id="veh_156" type="motorcycle" depart="877">
        <route edges="1112806233 4588647 -4588647 -917450542 917450543"/>
    </vehicle>
    <vehicle id="veh_176" type="truck" depart="879">
        <route edges="1112806233 4588647 -4588647 -917450542 917450543"/>
    </vehicle>
    <vehicle id="veh_96" type="car" depart="881">
        <route edges="1112806233 160192389"/>
    </vehicle>
    <vehicle id="veh_97" type="car" depart="892">
        <route edges="1112806233 4588647 -4588647 -917450542 1174874706"/>
    </vehicle>
    <vehicle id="veh_157" type="motorcycle" depart="893">
        <route edges="1112806233 4588647"/>
    </vehicle>
    <vehicle id="veh_181" type="bus" depart="893">
        <route edges="136822578 1174874706"/>
    </vehicle>
    <vehicle id="veh_205" type="car" depart="913">
        <route edges="4588647 -4588647 -917450542 1174874706"/>
    </vehicle>
    <vehicle id="veh_206" type="car" depart="925">
        <route edges="-4588647 -917450542 1174874706"/>
    </vehicle>
    <vehicle id="veh_292" type="motorcycle" depart="928">
        <route edges="1112806233 4588647"/>
    </vehicle>
    <vehicle id="veh_207" type="car" depart="936">
        <route edges="136822578 1174874706"/>
    </vehicle>
    <vehicle id="veh_208" type="car" depart="952">
        <route edges="-917450542 917450542 4588647 -4588647"/>
    </vehicle>
    <vehicle id="veh_293" type="motorcycle" depart="952">
        <route edges="-917450542 1174874706"/>
    </vehicle>
    <vehicle id="veh_209" type="car" depart="958">
        <route edges="136822578 917450542 4588647 -4588647"/>
    </vehicle>
    <vehicle id="jeepney_14" type="traditional_jeepney" depart="964">
        <route edges="1112806233 4588647"/>
    </vehicle>
    <vehicle id="veh_332" type="truck" depart="969">
        <route edges="1112806233 4588647 -4588647 -917450542 1174874706"/>
    </vehicle>
    <vehicle id="veh_210" type="car" depart="971">
        <route edges="136822578 1174874706"/>
    </vehicle>
    <vehicle id="veh_294" type="motorcycle" depart="976">
        <route edges="-917450542 917450542 4588647 -4588647"/>
    </vehicle>
    <vehicle id="modernjeepney_9" type="modern_jeepney" depart="986">
        <route edges="1112806233 4588647"/>
    </vehicle>
    <vehicle id="veh_211" type="car" depart="987">
        <route edges="-917450542 917450542 160192389"/>
    </vehicle>
    <vehicle id="veh_295" type="motorcycle" depart="998">
        <route edges="4588647 -4588647 -917450542"/>
    </vehicle>
    <vehicle id="veh_212" type="car" depart="1001">
        <route edges="-4588647 -917450542 917450543"/>
    </vehicle>
    <vehicle id="veh_296" type="motorcycle" depart="1013">
        <route edges="1174874706"/>
    </vehicle>
    <vehicle id="veh_213" type="car" depart="1014">
        <route edges="-917450542 917450542 4588647 -4588647"/>
    </vehicle>
    <vehicle id="veh_285" type="bicycle" depart="1015">
        <route edges="-4588647 -917450542 1174874706"/>
    </vehicle>
    <vehicle id="veh_333" type="truck" depart="1021">
        <route edges="1112806233 4588647 -4588647 -917450542 917450543"/>
    </vehicle>
    <vehicle id="veh_214" type="car" depart="1024">
        <route edges="-917450542 917450542 4588647 -4588647"/>
    </vehicle>
    <vehicle id="veh_297" type="motorcycle" depart="1028">
        <route edges="1112806233 4588647 -4588647 -917450542"/>
    </vehicle>
    <vehicle id="veh_215" type="car" depart="1032">
        <route edges="1112806233 4588647 -4588647 -917450542 1174874706"/>
    </vehicle>
    <vehicle id="jeepney_15" type="traditional_jeepney" depart="1036">
        <route edges="1112806233 4588647"/>
    </vehicle>
    <vehicle id="veh_216" type="car" depart="1049">
        <route edges="136822578 1174874706"/>
    </vehicle>
    <vehicle id="veh_298" type="motorcycle" depart="1050">
        <route edges="-4588647 -917450542 917450543"/>
    </vehicle>
    <vehicle id="veh_217" type="car" depart="1061">
        <route edges="136822578 917450542 -917450542"/>
    </vehicle>
    <vehicle id="veh_299" type="motorcycle" depart="1066">
        <route edges="-4588647 4588647"/>
    </vehicle>
    <vehicle id="veh_218" type="car" depart="1072">
        <route edges="4588647 -4588647 -917450542"/>
    </vehicle>
    <vehicle id="veh_334" type="truck" depart="1075">
        <route edges="4588647 -4588647"/>
    </vehicle>
    <vehicle id="veh_219" type="car" depart="1083">
        <route edges="4588647 -4588647 -917450542"/>
    </vehicle>
    <vehicle id="veh_347" type="bus" depart="1083">
        <route edges="1112806233 4588647 -4588647 -917450542 1174874706"/>
    </vehicle>
    <vehicle id="veh_300" type="motorcycle" depart="1085">
        <route edges="4588647 -4588647 -917450542 917450543"/>
    </vehicle>
    <vehicle id="veh_220" type="car" depart="1095">
        <route edges="136822578 917450543"/>
    </vehicle>
    <vehicle id="veh_301" type="motorcycle" depart="1104">
        <route edges="136822578 1174874706"/>
    </vehicle>
    <vehicle id="modernjeepney_10" type="modern_jeepney" depart="1109">
        <route edges="-4588647 -917450542 1174874706"/>
    </vehicle>
    <vehicle id="veh_221" type="car" depart="1110">
        <route edges="775437708 917450543"/>
    </vehicle>
    <vehicle id="veh_286" type="bicycle" depart="1111">
        <route edges="4588647 -4588647"/>
    </vehicle>
    <vehicle id="veh_222" type="car" depart="1115">