<?xml version="1.0" ?>
<routes xmlns:xsi="http://www.w3.org/2001/XMLSchema-instance" xsi:noNamespaceSchemaLocation="http://sumo.dlr.de/xsd/routes_file.xsd">
    <vehicle id="veh_32" type="motorcycle" depart="5">
        <route edges="-4588647 -917450542 1174874706"/>
    </vehicle>
    <vehicle id="veh_33" type="motorcycle" depart="7">
        <route edges="136822578 1174874706"/>
    </vehicle>
    <vehicle id="veh_34" type="motorcycle" depart="10">
        <route edges="1174874706"/>
    </vehicle>
    <vehicle id="veh_0" type="car" depart="11">
        <route edges="1174874706"/>
    </vehicle>
    <vehicle id="veh_35" type="motorcycle" depart="14">
        <route edges="-4588647 -917450542 1174874706"/>
    </vehicle>
    <vehicle id="veh_151" type="bicycle" depart="16">
        <route edges="136822578 1174874706"/>
    </vehicle>
    <vehicle id="veh_36" type="motorcycle" depart="18">
        <route edges="1174874706"/>
    </vehicle>
    <vehicle id="jeepney_0" type="traditional_jeepney" depart="18">
        <route edges="1112806233 4588647"/>
    </vehicle>
    <vehicle id="veh_1" type="car" depart="19">
        <route edges="136822578 917450543"/>
    </vehicle>
    <vehicle id="veh_37" type="motorcycle" depart="19">
        <route edges="775437708 917450543"/>
    </vehicle>
    <vehicle id="veh_38" type="motorcycle" depart="21">
        <route edges="1174874706"/>
    </vehicle>
    <vehicle id="veh_39" type="motorcycle" depart="24">
        <route edges="1174874706"/>
    </vehicle>
    <vehicle id="jeepney_1" type="traditional_jeepney" depart="29">
        <route edges="-4588647 -917450542 1174874706"/>
    </vehicle>
    <vehicle id="veh_40" type="motorcycle" depart="30">
        <route edges="-917450542 1174874706"/>
    </vehicle>
    <vehicle id="veh_2" type="car" depart="31">
        <route edges="-4588647 -917450542 1174874706"/>
    </vehicle>
    <vehicle id="veh_41" type="motorcycle" depart="33">
        <route edges="-4588647 -917450542 1174874706"/>
    </vehicle>
    <vehicle id="veh_42" type="motorcycle" depart="34">
        <route edges="-917450542 1174874706"/>
    </vehicle>
    <vehicle id="veh_43" type="motorcycle" depart="39">
        <route edges="1112806233 160192389"/>
    </vehicle>
    <vehicle id="veh_44" type="motorcycle" depart="39">
        <route edges="1112806233 160192389"/>
    </vehicle>
    <vehicle id="veh_152" type="bicycle" depart="39">
        <route edges="-917450542 1174874706"/>
    </vehicle>
    <vehicle id="veh_3" type="car" depart="41">
        <route edges="-4588647 -917450542 1174874706"/>
    </vehicle>
    <vehicle id="veh_45" type="motorcycle" depart="41">
        <route edges="136822578 1174874706"/>
    </vehicle>
    <vehicle id="veh_46" type="motorcycle" depart="44">
        <route edges="775437708 917450543"/>
    </vehicle>
    <vehicle id="veh_47" type="motorcycle" depart="49">
        <route edges="-917450542 1174874706"/>
    </vehicle>
    <vehicle id="jeepney_2" type="traditional_jeepney" depart="52">
        <route edges="1112806233 4588647"/>
    </vehicle>
    <vehicle id="veh_48" type="motorcycle" depart="53">
        <route edges="-4588647 -917450542 917450543"/>
    </vehicle>
    <vehicle id="veh_4" type="car" depart="54">
        <route edges="-917450542 1174874706"/>
    </vehicle>
    <vehicle id="veh_49" type="motorcycle" depart="55">
        <route edges="-4588647 160192389"/>
    </vehicle>
    <vehicle id="veh_153" type="bicycle" depart="57">
        <route edges="136822578 1174874706"/>
    </vehicle>
    <vehicle id="veh_50" type="motorcycle" depart="58">
        <route edges="136822578 1174874706"/>
    </vehicle>
    <vehicle id="veh_51" type="motorcycle" depart="59">
        <route edges="-4588647 -917450542 917450543"/>
    </vehicle>
    <vehicle id="veh_52" type="motorcycle" depart="63">
        <route edges="136822578 917450543"/>
    </vehicle>
    <vehicle id="veh_5" type="car" depart="67">
        <route edges="1112806233 160192389"/>
    </vehicle>
    <vehicle id="jeepney_3" type="traditional_jeepney" depart="67">
        <route edges="1112806233 4588647"/>
    </vehicle>
    <vehicle id="veh_53" type="motorcycle" depart="69">
        <route edges="1174874706"/>
    </vehicle>
    <vehicle id="veh_6" type="car" depart="70">
        <route edges="-917450542 917450543"/>
    </vehicle>
    <vehicle id="modernjeepney_0" type="modern_jeepney" depart="70">
        <route edges="1112806233 4588647"/>
    </vehicle>
    <vehicle id="veh_54" type="motorcycle" depart="71">
        <route edges="-917450542 1174874706"/>
    </vehicle>
    <vehicle id="veh_154" type="bicycle" depart="74">
        <route edges="-917450542 917450543"/>
    </vehicle>
    <vehicle id="veh_55" type="motorcycle" depart="76">
        <route edges="136822578 1174874706"/>
    </vehicle>
    <vehicle id="veh_56" type="motorcycle" depart="81">
        <route edges="-4588647 4588647"/>
    </vehicle>
    <vehicle id="veh_123" type="truck" depart="81">
        <route edges="-4588647 -917450542 1174874706"/>
    </vehicle>
    <vehicle id="jeepney_4" type="traditional_jeepney" depart="81">
        <route edges="-4588647 -917450542 1174874706"/>
    </vehicle>
    <vehicle id="veh_7" type="car" depart="82">
        <route edges="-4588647 -917450542 1174874706"/>
    </vehicle>
    <vehicle id="veh_57" type="motorcycle" depart="85">
        <route edges="1174874706"/>
    </vehicle>
    <vehicle id="veh_155" type="bicycle" depart="88">
        <route edges="-917450542 1174874706"/>
    </vehicle>
    <vehicle id="veh_58" type="motorcycle" depart="90">
        <route edges="775437708 917450543"/>
    </vehicle>
    <vehicle id="veh_8" type="car" depart="91">
        <route edges="-917450542 917450543"/>
    </vehicle>
    <vehicle id="jeepney_5" type="traditional_jeepney" depart="93">
        <route edges="-4588647 -917450542 1174874706"/>
    </vehicle>
    <vehicle id="veh_59" type="motorcycle" depart="95">
        <route edges="136822578 1174874706"/>
    </vehicle>
    <vehicle id="veh_60" type="motorcycle" depart="97">
        <route edges="1112806233 4588647"/>
    </vehicle>
    <vehicle id="veh_61" type="motorcycle" depart="102">
        <route edges="1112806233 4588647"/>
    </vehicle>
    <vehicle id="veh_9" type="car" depart="103">
        <route edges="775437708 917450543"/>
    </vehicle>
    <vehicle id="jeepney_6" type="traditional_jeepney" depart="105">
        <route edges="-4588647 -917450542 1174874706"/>
    </vehicle>
    <vehicle id="veh_156" type="bicycle" depart="105">
        <route edges="-4588647 -917450542 917450543"/>
    </vehicle>
    <vehicle id="veh_10" type="car" depart="108">
        <route edges="1112806233 4588647"/>
    </vehicle>
    <vehicle id="veh_62" type="motorcycle" depart="108">
        <route edges="-917450542 1174874706"/>
    </vehicle>
    <vehicle id="veh_63" type="motorcycle" depart="111">
        <route edges="1174874706"/>
    </vehicle>
    <vehicle id="veh_64" type="motorcycle" depart="115">
        <route edges="-4588647 -917450542 1174874706"/>
    </vehicle>
    <vehicle id="veh_11" type="car" depart="117">
        <route edges="1174874706"/>
    </vehicle>
    <vehicle id="veh_65" type="motorcycle" depart="118">
        <route edges="-4588647 -917450542 1174874706"/>
    </vehicle>
    <vehicle id="veh_66" type="motorcycle" depart="118">
        <route edges="-4588647 4588647"/>
    </vehicle>
    <vehicle id="jeepney_7" type="traditional_jeepney" depart="123">
        <route edges="1112806233 4588647"/>
    </vehicle>
    <vehicle id="veh_67" type="motorcycle" depart="124">
        <route edges="136822578 1174874706"/>
    </vehicle>
    <vehicle id="veh_12" type="car" depart="126">
        <route edges="136822578 917450543"/>
    </vehicle>
    <vehicle id="veh_68" type="motorcycle" depart="126">
        <route edges="-4588647 160192389"/>
    </vehicle>
    <vehicle id="modernjeepney_1" type="modern_jeepney" depart="126">
        <route edges="1112806233 4588647"/>
    </vehicle>
    <vehicle id="veh_157" type="bicycle" depart="126">
        <route edges="1174874706"/>
    </vehicle>
    <vehicle id="veh_13" type="car" depart="131">
        <route edges="-4588647 4588647"/>
    </vehicle>
    <vehicle id="veh_69" type="motorcycle" depart="131">
        <route edges="1112806233 160192389"/>
    </vehicle>
    <vehicle id="jeepney_8" type="traditional_jeepney" depart="133">
        <route edges="1112806233 4588647"/>
    </vehicle>
    <vehicle id="veh_70" type="motorcycle" depart="135">
        <route edges="-917450542 1174874706"/>
    </vehicle>
    <vehicle id="veh_71" type="motorcycle" depart="137">
        <route edges="136822578 1174874706"/>
    </vehicle>
    <vehicle id="veh_14" type="car" depart="139">
        <route edges="1112806233 160192389"/>
    </vehicle>
    <vehicle id="veh_72" type="motorcycle" depart="139">
        <route edges="775437708 917450543"/>
    </vehicle>
    <vehicle id="veh_158" type="bicycle" depart="141">
        <route edges="-4588647 160192389"/>
    </vehicle>
    <vehicle id="veh_73" type="motorcycle" depart="142">
        <route edges="775437708 917450543"/>
    </vehicle>
    <vehicle id="veh_74" type="motorcycle" depart="146">
        <route edges="-4588647 4588647"/>
    </vehicle>
    <vehicle id="veh_75" type="motorcycle" depart="147">
        <route edges="-4588647 -917450542"/>
    </vehicle>
    <vehicle id="veh_76" type="motorcycle" depart="150">
        <route edges="-917450542 917450543"/>
    </vehicle>
    <vehicle id="veh_77" type="motorcycle" depart="150">
        <route edges="1112806233 160192389"/>
    </vehicle>
    <vehicle id="veh_15" type="car" depart="151">
        <route edges="-917450542 1174874706"/>
    </vehicle>
    <vehicle id="veh_78" type="motorcycle" depart="151">
        <route edges="-917450542 1174874706"/>
    </vehicle>
    <vehicle id="jeepney_9" type="traditional_jeepney" depart="151">
        <route edges="1112806233 4588647"/>
    </vehicle>
    <vehicle id="veh_79" type="motorcycle" depart="155">
        <route edges="136822578 917450543"/>
    </vehicle>
    <vehicle id="veh_80" type="motorcycle" depart="157">
        <route edges="-4588647 -917450542 917450543"/>
    </vehicle>
    <vehicle id="veh_16" type="car" depart="159">
        <route edges="-4588647 -917450542 917450543"/>
    </vehicle>
    <vehicle id="veh_81" type="motorcycle" depart="161">
        <route edges="-917450542 1174874706"/>
    </vehicle>
    <vehicle id="jeepney_10" type="traditional_jeepney" depart="161">
        <route edges="-4588647 -917450542 1174874706"/>
    </vehicle>
    <vehicle id="veh_159" type="bicycle" depart="164">
        <route edges="136822578 1174874706"/>
    </vehicle>
    <vehicle id="veh_82" type="motorcycle" depart="165">
        <route edges="136822578 1174874706"/>
    </vehicle>
    <vehicle id="veh_83" type="motorcycle" depart="168">
        <route edges="1174874706"/>
    </vehicle>
    <vehicle id="veh_84" type="motorcycle" depart="171">
        <route edges="775437708 917450543"/>
    </vehicle>
    <vehicle id="veh_85" type="motorcycle" depart="171">
        <route edges="1174874706"/>
    </vehicle>
    <vehicle id="veh_86" type="motorcycle" depart="172">
        <route edges="-4588647 160192389"/>
    </vehicle>
    <vehicle id="jeepney_11" type="traditional_jeepney" depart="173">
        <route edges="1112806233 4588647"/>
    </vehicle>
    <vehicle id="veh_17" type="car" depart="174">
        <route edges="-4588647 -917450542 917450543"/>
    </vehicle>
    <vehicle id="veh_87" type="motorcycle" depart="175">
        <route edges="775437708 917450543"/>
    </vehicle>
    <vehicle id="veh_124" type="truck" depart="176">
        <route edges="1112806233 4588647"/>
    </vehicle>
    <vehicle id="veh_88" type="motorcycle" depart="177">
        <route edges="1174874706"/>
    </vehicle>
    <vehicle id="jeepney_12" type="traditional_jeepney" depart="178">
        <route edges="1112806233 4588647"/>
    </vehicle>
    <vehicle id="veh_160" type="bicycle" depart="178">
        <route edges="775437708 917450543"/>
    </vehicle>
    <vehicle id="veh_89" type="motorcycle" depart="181">
        <route edges="136822578 1174874706"/>
    </vehicle>
    <vehicle id="veh_90" type="motorcycle" depart="184">
        <route edges="1174874706"/>
    </vehicle>
    <vehicle id="veh_18" type="car" depart="187">
        <route edges="136822578 1174874706"/>
    </vehicle>
    <vehicle id="veh_91" type="motorcycle" depart="187">
        <route edges="-4588647 -917450542 1174874706"/>
    </vehicle>
    <vehicle id="veh_19" type="car" depart="189">
        <route edges="1174874706"/>
    </vehicle>
    <vehicle id="veh_92" type="motorcycle" depart="192">
        <route edges="775437708 917450543"/>
    </vehicle>
    <vehicle id="jeepney_13" type="traditional_jeepney" depart="192">
        <route edges="1112806233 4588647"/>
    </vehicle>
    <vehicle id="veh_161" type="bicycle" depart="195">
        <route edges="136822578 1174874706"/>
    </vehicle>
    <vehicle id="modernjeepney_2" type="modern_jeepney" depart="196">
        <route edges="-4588647 -917450542 1174874706"/>
    </vehicle>
    <vehicle id="veh_93" type="motorcycle" depart="197">
        <route edges="-4588647 -917450542 1174874706"/>
    </vehicle>
    <vehicle id="veh_20" type="car" depart="198">
        <route edges="775437708 917450543"/>
    </vehicle>
    <vehicle id="veh_94" type="motorcycle" depart="201">
        <route edges="-917450542 1174874706"/>
    </vehicle>
    <vehicle id="jeepney_14" type="traditional_jeepney" depart="204">
        <route edges="-4588647 -917450542 1174874706"/>
    </vehicle>
    <vehicle id="veh_95" type="motorcycle" depart="205">
        <route edges="136822578 917450543"/>
    </vehicle>
    <vehicle id="veh_21" type="car" depart="207">
        <route edges="-4588647 -917450542 917450543"/>
    </vehicle>
    <vehicle id="veh_96" type="motorcycle" depart="209">
        <route edges="1112806233 4588647"/>
    </vehicle>
    <vehicle id="veh_97" type="motorcycle" depart="211">
        <route edges="-917450542 1174874706"/>
    </vehicle>
    <vehicle id="veh_98" type="motorcycle" depart="217">
        <route edges="-4588647 160192389"/>
    </vehicle>
    <vehicle id="jeepney_15" type="traditional_jeepney" depart="217">
        <route edges="-4588647 -917450542 1174874706"/>
    </vehicle>
    <vehicle id="veh_22" type="car" depart="218">
        <route edges="1112806233 4588647"/>
    </vehicle>
    <vehicle id="veh_99" type="motorcycle" depart="221">
        <route edges="775437708 917450543"/>
    </vehicle>
    <vehicle id="veh_162" type="bicycle" depart="221">
        <route edges="-4588647 -917450542 917450543"/>
    </vehicle>
    <vehicle id="veh_23" type="car" depart="223">
        <route edges="-4588647 4588647"/>
    </vehicle>
    <vehicle id="jeepney_16" type="traditional_jeepney" depart="224">
        <route edges="-4588647 -917450542 1174874706"/>
    </vehicle>
    <vehicle id="veh_100" type="motorcycle" depart="226">
        <route edges="-4588647 -917450542"/>
    </vehicle>
    <vehicle id="veh_101" type="motorcycle" depart="229">
        <route edges="-4588647 -917450542 1174874706"/>
    </vehicle>
    <vehicle id="veh_24" type="car" depart="231">
        <route edges="775437708 917450543"/>
    </vehicle>
    <vehicle id="veh_102" type="motorcycle" depart="231">
        <route edges="-4588647 -917450542"/>
    </vehicle>
    <vehicle id="veh_103" type="motorcycle" depart="235">
        <route edges="1112806233 4588647"/>
    </vehicle>
    <vehicle id="veh_163" type="bicycle" depart="235">
        <route edges="-4588647 -917450542 1174874706"/>
    </vehicle>
    <vehicle id="veh_25" type="car" depart="236">
        <route edges="136822578 1174874706"/>
    </vehicle>
    <vehicle id="veh_104" type="motorcycle" depart="237">
        <route edges="1174874706"/>
    </vehicle>
    <vehicle id="veh_105" type="motorcycle" depart="241">
        <route edges="1174874706"/>
    </vehicle>
    <vehicle id="jeepney_17" type="traditional_jeepney" depart="241">
        <route edges="-4588647 -917450542 1174874706"/>
    </vehicle>
    <vehicle id="veh_26" type="car" depart="242">
        <route edges="-4588647 -917450542 1174874706"/>
    </vehicle>
    <vehicle id="veh_106" type="motorcycle" depart="244">
        <route edges="1174874706"/>
    </vehicle>
    <vehicle id="veh_107" type="motorcycle" depart="249">
        <route edges="1174874706"/>
    </vehicle>
    <vehicle id="veh_27" type="car" depart="251">
        <route edges="-917450542 917450543"/>
    </vehicle>
    <vehicle id="veh_108" type="motorcycle" depart="251">
        <route edges="1174874706"/>
    </vehicle>
    <vehicle id="veh_109" type="motorcycle" depart="257">
        <route edges="-4588647 -917450542"/>
    </vehicle>
    <vehicle id="veh_28" type="car" depart="258">
        <route edges="1174874706"/>
    </vehicle>
    <vehicle id="jeepney_18" type="traditional_jeepney" depart="259">
        <route edges="-4588647 -917450542 1174874706"/>
    </vehicle>
    <vehicle id="veh_110" type="motorcycle" depart="262">
        <route edges="1174874706"/>
    </vehicle>
    <vehicle id="veh_164" type="bicycle" depart="262">
        <route edges="-4588647 160192389"/>
    </vehicle>
    <vehicle id="veh_111" type="motorcycle" depart="265">
        <route edges="-4588647 4588647"/>
    </vehicle>
    <vehicle id="veh_125" type="truck" depart="265">
        <route edges="-4588647 160192389"/>
    </vehicle>
    <vehicle id="veh_29" type="car" depart="267">
        <route edges="-4588647 -917450542 1174874706"/>
    </vehicle>
    <vehicle id="veh_112" type="motorcycle" depart="270">
        <route edges="1112806233 4588647"/>
    </vehicle>
    <vehicle id="veh_113" type="motorcycle" depart="271">
        <route edges="136822578 1174874706"/>
    </vehicle>
    <vehicle id="modernjeepney_3" type="modern_jeepney" depart="271">
        <route edges="-4588647 -917450542 1174874706"/>
    </vehicle>
    <vehicle id="veh_114" type="motorcycle" depart="273">
        <route edges="136822578 917450543"/>
    </vehicle>
    <vehicle id="veh_30" type="car" depart="274">
        <route edges="-4588647 -917450542 1174874706"/>
    </vehicle>
    <vehicle id="jeepney_19" type="traditional_jeepney" depart="275">
        <route edges="-4588647 -917450542 1174874706"/>
    </vehicle>
    <vehicle id="veh_115" type="motorcycle" depart="276">
        <route edges="-4588647 -917450542"/>
    </vehicle>
    <vehicle id="veh_116" type="motorcycle" depart="280">
        <route edges="775437708 917450543"/>
    </vehicle>
    <vehicle id="veh_117" type="motorcycle" depart="283">
        <route edges="1174874706"/>
    </vehicle>
    <vehicle id="veh_31" type="car" depart="284">
        <route edges="136822578 1174874706"/>
    </vehicle>
    <vehicle id="veh_118" type="motorcycle" depart="286">
        <route edges="136822578 1174874706"/>
    </vehicle>
    <vehicle id="veh_165" type="bicycle" depart="286">
        <route edges="-4588647 160192389"/>
    </vehicle>
    <vehicle id="veh_119" type="motorcycle" depart="289">
        <route edges="-4588647 -917450542 1174874706"/>
    </vehicle>
    <vehicle id="jeepney_20" type="traditional_jeepney" depart="291">
        <route edges="1112806233 4588647"/>
    </vehicle>
    <vehicle id="veh_120" type="motorcycle" depart="292">
        <route edges="-4588647 160192389"/>
    </vehicle>
    <vehicle id="veh_121" type="motorcycle" depart="295">
        <route edges="136822578 917450543"/>
    </vehicle>
    <vehicle id="veh_122" type="motorcycle" depart="297">
        <route edges="-917450542 1174874706"/>
    </vehicle>
    <vehicle id="veh_166" type="bicycle" depart="297">
        <route edges="-917450542 1174874706"/>
    </vehicle>
    <vehicle id="veh_167" type="car" depart="303">
        <route edges="136822578 1174874706"/>
    </vehicle>
    <vehicle id="veh_216" type="motorcycle" depart="306">
        <route edges="-4588647 4588647"/>
    </vehicle>
    <vehicle id="veh_217" type="motorcycle" depart="308">
        <route edges="136822578 917450543"/>
    </vehicle>
    <vehicle id="veh_218" type="motorcycle" depart="310">
        <route edges="1174874706"/>
    </vehicle>
    <vehicle id="veh_219" type="motorcycle" depart="312">
        <route edges="775437708 917450543"/>
    </vehicle>
    <vehicle id="veh_168" type="car" depart="313">
        <route edges="-4588647 -917450542 1174874706"/>
    </vehicle>
    <vehicle id="veh_220" type="motorcycle" depart="314">
        <route edges="-4588647 -917450542"/>
    </vehicle>
    <vehicle id="veh_221" type="motorcycle" depart="316">
        <route edges="775437708 917450543"/>
    </vehicle>
    <vehicle id="jeepney_21" type="traditional_jeepney" depart="318">
        <route edges="1112806233 4588647"/>
    </vehicle>
    <vehicle id="veh_222" type="motorcycle" depart="319">
        <route edges="1112806233 4588647"/>
    </vehicle>
    <vehicle id="veh_169" type="car" depart="321">
        <route edges="-4588647 4588647"/>
    </vehicle>
    <vehicle id="veh_223" type="motorcycle" depart="322">
        <route edges="1174874706"/>
    </vehicle>
    <vehicle id="veh_224" type="motorcycle" depart="323">
        <route edges="136822578 917450543"/>
    </vehicle>
    <vehicle id="veh_225" type="motorcycle" depart="325">
        <route edges="-4588647 160192389"/>
    </vehicle>
    <vehicle id="veh_226" type="motorcycle" depart="327">
        <route edges="-4588647 4588647"/>
    </vehicle>
    <vehicle id="veh_227" type="motorcycle" depart="329">
        <route edges="775437708 917450543"/>
    </vehicle>
    <vehicle id="veh_170" type="car" depart="330">
        <route edges="-4588647 -917450542 1174874706"/>
    </vehicle>
    <vehicle id="jeepney_22" type="traditional_jeepney" depart="333">
        <route edges="-4588647 -917450542 1174874706"/>
    </vehicle>
    <vehicle id="veh_171" type="car" depart="334">
        <route edges="1112806233 4588647"/>
    </vehicle>
    <vehicle id="veh_228" type="motorcycle" depart="335">
        <route edges="1112806233 4588647"/>
    </vehicle>
    <vehicle id="veh_172" type="car" depart="342">
        <route edges="-4588647 -917450542 1174874706"/>
    </vehicle>
    <vehicle id="veh_229" type="motorcycle" depart="343">
        <route edges="1174874706"/>
    </vehicle>
    <vehicle id="veh_318" type="bicycle" depart="343">
        <route edges="1112806233 160192389"/>
    </vehicle>
    <vehicle id="veh_230" type="motorcycle" depart="344">
        <route edges="-4588647 -917450542 1174874706"/>
    </vehicle>
    <vehicle id="jeepney_23" type="traditional_jeepney" depart="347">
        <route edges="-4588647 -917450542 1174874706"/>
    </vehicle>
    <vehicle id="veh_231" type="motorcycle" depart="349">
        <route edges="-917450542 917450543"/>
    </vehicle>
    <vehicle id="veh_173" type="car" depart="351">
        <route edges="136822578 917450543"/>
    </vehicle>
    <vehicle id="veh_232" type="motorcycle" depart="354">
        <route edges="-4588647 -917450542 1174874706"/>
    </vehicle>
    <vehicle id="veh_233" type="motorcycle" depart="354">
        <route edges="-4588647 160192389"/>
    </vehicle>
    <vehicle id="veh_174" type="car" depart="356">
        <route edges="-4588647 160192389"/>
    </vehicle>
    <vehicle id="veh_234" type="motorcycle" depart="358">
        <route edges="1112806233 160192389"/>
    </vehicle>
    <vehicle id="jeepney_24" type="traditional_jeepney" depart="360">
        <route edges="1112806233 4588647"/>
    </vehicle>
    <vehicle id="veh_175" type="car" depart="362">
        <route edges="-4588647 4588647"/>
    </vehicle>
    <vehicle id="veh_235" type="motorcycle" depart="364">
        <route edges="-4588647 -917450542 917450543"/>
    </vehicle>
    <vehicle id="veh_236" type="motorcycle" depart="366">
        <route edges="-4588647 -917450542 1174874706"/>
    </vehicle>
    <vehicle id="veh_176" type="car" depart="367">
        <route edges="1112806233 4588647"/>
    </vehicle>
    <vehicle id="veh_237" type="motorcycle" depart="368">
        <route edges="-4588647 4588647"/>
    </vehicle>
    <vehicle id="modernjeepney_4" type="modern_jeepney" depart="371">
        <route edges="-4588647 -917450542 1174874706"/>
    </vehicle>
    <vehicle id="veh_177" type="car" depart="372">
        <route edges="136822578 917450543"/>
    </vehicle>
    <vehicle id="veh_238" type="motorcycle" depart="372">
        <route edges="1174874706"/>
    </vehicle>
    <vehicle id="veh_239" type="motorcycle" depart="375">
        <route edges="-4588647 -917450542 1174874706"/>
    </vehicle>
    <vehicle id="veh_178" type="car" depart="376">
        <route edges="1112806233 160192389"/>
    </vehicle>
    <vehicle id="veh_240" type="motorcycle" depart="378">
        <route edges="-4588647 -917450542"/>
    </vehicle>
    <vehicle id="veh_241" type="motorcycle" depart="380">
        <route edges="-4588647 -917450542 917450543"/>
    </vehicle>
    <vehicle id="veh_319" type="bicycle" depart="381">
        <route edges="775437708 917450543"/>
    </vehicle>
    <vehicle id="veh_242" type="motorcycle" depart="383">
        <route edges="-917450542 1174874706"/>
    </vehicle>
    <vehicle id="jeepney_25" type="traditional_jeepney" depart="385">
        <route edges="-4588647 -917450542 1174874706"/>
    </vehicle>
    <vehicle id="veh_179" type="car" depart="386">
        <route edges="-917450542 1174874706"/>
    </vehicle>
    <vehicle id="veh_243" type="motorcycle" depart="390">
        <route edges="136822578 1174874706"/>
    </vehicle>
    <vehicle id="veh_180" type="car" depart="393">
        <route edges="1112806233 160192389"/>
    </vehicle>
    <vehicle id="veh_181" type="car" depart="396">
        <route edges="-4588647 -917450542 917450543"/>
    </vehicle>
    <vehicle id="jeepney_26" type="traditional_jeepney" depart="397">
        <route edges="-4588647 -917450542 1174874706"/>
    </vehicle>
    <vehicle id="veh_182" type="car" depart="399">
        <route edges="-4588647 -917450542"/>
    </vehicle>
    <vehicle id="veh_244" type="motorcycle" depart="399">
        <route edges="775437708 917450543"/>
    </vehicle>
    <vehicle id="veh_245" type="motorcycle" depart="404">
        <route edges="-4588647 -917450542 1174874706"/>
    </vehicle>
    <vehicle id="veh_246" type="motorcycle" depart="407">
        <route edges="-4588647 -917450542"/>
    </vehicle>
    <vehicle id="veh_183" type="car" depart="410">
        <route edges="1112806233 160192389"/>
    </vehicle>
    <vehicle id="veh_247" type="motorcycle" depart="411">
        <route edges="-917450542 917450543"/>
    </vehicle>
    <vehicle id="veh_248" type="motorcycle" depart="413">
        <route edges="-4588647 4588647"/>
    </vehicle>
    <vehicle id="veh_184" type="car" depart="415">
        <route edges="-4588647 -917450542"/>
    </vehicle>
    <vehicle id="jeepney_27" type="traditional_jeepney" depart="416">
        <route edges="-4588647 -917450542 1174874706"/>
    </vehicle>
    <vehicle id="veh_249" type="motorcycle" depart="417">
        <route edges="-4588647 -917450542 1174874706"/>
    </vehicle>
    <vehicle id="veh_185" type="car" depart="422">
        <route edges="775437708 917450543"/>
    </vehicle>
    <vehicle id="veh_250" type="motorcycle" depart="422">
        <route edges="-4588647 -917450542 1174874706"/>
    </vehicle>
    <vehicle id="modernjeepney_5" type="modern_jeepney" depart="424">
        <route edges="-4588647 -917450542 1174874706"/>
    </vehicle>
    <vehicle id="veh_251" type="motorcycle" depart="426">
        <route edges="1174874706"/>
    </vehicle>
    <vehicle id="veh_320" type="bicycle" depart="427">
        <route edges="-917450542 917450543"/>
    </vehicle>
    <vehicle id="veh_186" type="car" depart="429">
        <route edges="-4588647 -917450542 1174874706"/>
    </vehicle>
    <vehicle id="veh_187" type="car" depart="430">
        <route edges="775437708 917450543"/>
    </vehicle>
    <vehicle id="jeepney_28" type="traditional_jeepney" depart="431">
        <route edges="-4588647 -917450542 1174874706"/>
    </vehicle>
    <vehicle id="veh_252" type="motorcycle" depart="432">
        <route edges="136822578 917450543"/>
    </vehicle>
    <vehicle id="veh_253" type="motorcycle" depart="435">
        <route edges="-917450542 1174874706"/>
    </vehicle>
    <vehicle id="veh_188" type="car" depart="437">
        <route edges="1112806233 160192389"/>
    </vehicle>
    <vehicle id="jeepney_29" type="traditional_jeepney" depart="439">
        <route edges="1112806233 4588647"/>
    </vehicle>
    <vehicle id="veh_254" type="motorcycle" depart="440">
        <route edges="136822578 1174874706"/>
    </vehicle>
    <vehicle id="veh_189" type="car" depart="441">
        <route edges="1174874706"/>
    </vehicle>
    <vehicle id="veh_255" type="motorcycle" depart="442">
        <route edges="-4588647 -917450542 917450543"/>
    </vehicle>
    <vehicle id="veh_190" type="car" depart="443">
        <route edges="1174874706"/>
    </vehicle>
    <vehicle id="veh_256" type="motorcycle" depart="447">
        <route edges="-4588647 -917450542 917450543"/>
    </vehicle>
    <vehicle id="veh_191" type="car" depart="448">
        <route edges="-4588647 -917450542 1174874706"/>
    </vehicle>
    <vehicle id="veh_257" type="motorcycle" depart="451">
        <route edges="-4588647 -917450542 1174874706"/>
    </vehicle>
    <vehicle id="veh_192" type="car" depart="453">
        <route edges="-917450542 1174874706"/>
    </vehicle>
    <vehicle id="veh_258" type="motorcycle" depart="453">
        <route edges="-4588647 -917450542"/>
    </vehicle>
    <vehicle id="veh_296" type="truck" depart="456">
        <route edges="1112806233 160192389"/>
    </vehicle>