<?xml version="1.0" ?>
<routes xmlns:xsi="http://www.w3.org/2001/XMLSchema-instance" xsi:noNamespaceSchemaLocation="http://sumo.dlr.de/xsd/routes_file.xsd">
    <vehicle id="veh_0" type="car" depart="7">
        <route edges="136822578 917450542 4588647"/>
    </vehicle>
    <vehicle id="veh_109" type="motorcycle" depart="9">
        <route edges="4588647 -4588647 -917450542"/>
    </vehicle>
    <vehicle id="veh_1" type="car" depart="16">
        <route edges="4588647 -4588647 160192389"/>
    </vehicle>
    <vehicle id="veh_2" type="car" depart="26">
        <route edges="-4588647 -917450542 917450543"/>
    </vehicle>
    <vehicle id="veh_110" type="motorcycle" depart="28">
        <route edges="-4588647 -917450542"/>
    </vehicle>
    <vehicle id="veh_3" type="car" depart="33">
        <route edges="1112806233 4588647 -4588647 -917450542 917450543"/>
    </vehicle>
    <vehicle id="veh_4" type="car" depart="42">
        <route edges="-917450542 1174874706"/>
    </vehicle>
    <vehicle id="veh_111" type="motorcycle" depart="45">
        <route edges="4588647 -4588647"/>
    </vehicle>
    <vehicle id="veh_5" type="car" depart="52">
        <route edges="-917450542 1174874706"/>
    </vehicle>
    <vehicle id="veh_159" type="truck" depart="52">
        <route edges="-917450542 917450543"/>
    </vehicle>
    <vehicle id="veh_6" type="car" depart="59">
        <route edges="775437708 917450543"/>
    </vehicle>
    <vehicle id="veh_112" type="motorcycle" depart="60">
        <route edges="-4588647 -917450542 1174874706"/>
    </vehicle>
    <vehicle id="jeepney_0" type="traditional_jeepney" depart="67">
        <route edges="1112806233 4588647"/>
    </vehicle>
    <vehicle id="veh_7" type="car" depart="68">
        <route edges="1112806233 160192389"/>
    </vehicle>
    <vehicle id="veh_8" type="car" depart="74">
        <route edges="1112806233 4588647 -4588647 -917450542 1174874706"/>
    </vehicle>
    <vehicle id="veh_113" type="motorcycle" depart="79">
        <route edges="-917450542 917450542 160192389"/>
    </vehicle>
    <vehicle id="veh_9" type="car" depart="81">
        <route edges="-917450542 917450543"/>
    </vehicle>
    <vehicle id="veh_100" type="bicycle" depart="84">
        <route edges="-4588647 4588647"/>
    </vehicle>
    <vehicle id="modernjeepney_0" type="modern_jeepney" depart="87">
        <route edges="1112806233 4588647"/>
    </vehicle>
    <vehicle id="veh_10" type="car" depart="92">
        <route edges="4588647 -4588647 160192389"/>
    </vehicle>
    <vehicle id="veh_114" type="motorcycle" depart="94">
        <route edges="1112806233 4588647"/>
    </vehicle>
    <vehicle id="veh_160" type="truck" depart="94">
        <route edges="136822578 917450543"/>
    </vehicle>
    <vehicle id="veh_11" type="car" depart="103">
        <route edges="-4588647 4588647"/>
    </vehicle>
    <vehicle id="veh_12" type="car" depart="111">
        <route edges="4588647 -4588647 -917450542 1174874706"/>
    </vehicle>
    <vehicle id="veh_115" type="motorcycle" depart="114">
        <route edges="4588647 -4588647 -917450542 917450543"/>
    </vehicle>
    <vehicle id="veh_13" type="car" depart="120">
        <route edges="4588647 -4588647 -917450542 1174874706"/>
    </vehicle>
    <vehicle id="veh_116" type="motorcycle" depart="128">
        <route edges="1174874706"/>
    </vehicle>
    <vehicle id="veh_14" type="car" depart="129">
        <route edges="4588647 -4588647 -917450542 1174874706"/>
    </vehicle>
    <vehicle id="veh_161" type="truck" depart="132">
        <route edges="775437708 917450543"/>
    </vehicle>
    <vehicle id="veh_15" type="car" depart="133">
        <route edges="136822578 917450542 4588647 -4588647"/>
    </vehicle>
    <vehicle id="jeepney_1" type="traditional_jeepney" depart="133">
        <route edges="1112806233 4588647"/>
    </vehicle>
    <vehicle id="veh_16" type="car" depart="142">
        <route edges="4588647 -4588647"/>
    </vehicle>
    <vehicle id="veh_17" type="car" depart="147">
        <route edges="136822578 917450543"/>
    </vehicle>
    <vehicle id="veh_117" type="motorcycle" depart="148">
        <route edges="-4588647 -917450542 1174874706"/>
    </vehicle>
    <vehicle id="veh_18" type="car" depart="156">
        <route edges="136822578 1174874706"/>
    </vehicle>
    <vehicle id="veh_162" type="truck" depart="166">
        <route edges="1112806233 4588647 -4588647 -917450542 1174874706"/>
    </vehicle>
    <vehicle id="veh_118" type="motorcycle" depart="167">
        <route edges="136822578 917450542 -917450542"/>
    </vehicle>
    <vehicle id="veh_19" type="car" depart="168">
        <route edges="-917450542 917450543"/>
    </vehicle>
    <vehicle id="veh_179" type="bus" depart="169">
        <route edges="-4588647 4588647"/>
    </vehicle>
    <vehicle id="veh_101" type="bicycle" depart="170">
        <route edges="-917450542 1174874706"/>
    </vehicle>
    <vehicle id="modernjeepney_1" type="modern_jeepney" depart="172">
        <route edges="-4588647 -917450542 1174874706"/>
    </vehicle>
    <vehicle id="veh_20" type="car" depart="176">
        <route edges="-917450542 917450542 4588647 -4588647"/>
    </vehicle>
    <vehicle id="veh_119" type="motorcycle" depart="185">
        <route edges="136822578 917450542 160192389"/>
    </vehicle>
    <vehicle id="veh_21" type="car" depart="189">
        <route edges="-917450542 1174874706"/>
    </vehicle>
    <vehicle id="jeepney_2" type="traditional_jeepney" depart="198">
        <route edges="1112806233 4588647"/>
    </vehicle>
    <vehicle id="veh_22" type="car" depart="200">
        <route edges="1112806233 4588647 -4588647 -917450542"/>
    </vehicle>
    <vehicle id="veh_163" type="truck" depart="202">
        <route edges="-4588647 -917450542 917450543"/>
    </vehicle>
    <vehicle id="veh_120" type="motorcycle" depart="205">
        <route edges="-917450542 917450542 4588647"/>
    </vehicle>
    <vehicle id="veh_23" type="car" depart="207">
        <route edges="1112806233 4588647 -4588647"/>
    </vehicle>
    <vehicle id="veh_24" type="car" depart="218">
        <route edges="1174874706"/>
    </vehicle>
    <vehicle id="veh_121" type="motorcycle" depart="227">
        <route edges="-917450542 1174874706"/>
    </vehicle>
    <vehicle id="veh_25" type="car" depart="228">
        <route edges="136822578 917450542 4588647"/>
    </vehicle>
    <vehicle id="veh_26" type="car" depart="239">
        <route edges="1112806233 4588647 -4588647"/>
    </vehicle>
    <vehicle id="veh_164" type="truck" depart="245">
        <route edges="-4588647 -917450542"/>
    </vehicle>
    <vehicle id="veh_27" type="car" depart="251">
        <route edges="136822578 917450542 160192389"/>
    </vehicle>
    <vehicle id="veh_122" type="motorcycle" depart="253">
        <route edges="-4588647 -917450542 1174874706"/>
    </vehicle>
    <vehicle id="jeepney_3" type="traditional_jeepney" depart="255">
        <route edges="-4588647 -917450542 1174874706"/>
    </vehicle>
    <vehicle id="modernjeepney_2" type="modern_jeepney" depart="256">
        <route edges="-4588647 -917450542 1174874706"/>
    </vehicle>
    <vehicle id="veh_28" type="car" depart="259">
        <route edges="1112806233 4588647 -4588647"/>
    </vehicle>
    <vehicle id="veh_102" type="bicycle" depart="262">
        <route edges="-917450542 917450542 4588647 -4588647"/>
    </vehicle>
    <vehicle id="veh_123" type="motorcycle" depart="269">
        <route edges="1174874706"/>
    </vehicle>
    <vehicle id="veh_29" type="car" depart="272">
        <route edges="136822578 1174874706"/>
    </vehicle>
    <vehicle id="veh_30" type="car" depart="281">
        <route edges="1112806233 4588647 -4588647 -917450542"/>
    </vehicle>
    <vehicle id="veh_124" type="motorcycle" depart="288">
        <route edges="-4588647 160192389"/>
    </vehicle>
    <vehicle id="veh_165" type="truck" depart="290">
        <route edges="1112806233 4588647 -4588647 -917450542 1174874706"/>
    </vehicle>
    <vehicle id="veh_31" type="car" depart="292">
        <route edges="-917450542 917450542 160192389"/>
    </vehicle>
    <vehicle id="veh_32" type="car" depart="301">
        <route edges="-917450542 917450543"/>
    </vehicle>
    <vehicle id="veh_125" type="motorcycle" depart="307">
        <route edges="-917450542 1174874706"/>
    </vehicle>
    <vehicle id="veh_33" type="car" depart="313">
        <route edges="4588647 -4588647"/>
    </vehicle>
    <vehicle id="jeepney_4" type="traditional_jeepney" depart="315">
        <route edges="1112806233 4588647"/>
    </vehicle>
    <vehicle id="veh_34" type="car" depart="321">
        <route edges="1174874706"/>
    </vehicle>
    <vehicle id="veh_126" type="motorcycle" depart="324">
        <route edges="1174874706"/>
    </vehicle>
    <vehicle id="veh_35" type="car" depart="330">
        <route edges="1112806233 4588647"/>
    </vehicle>
    <vehicle id="veh_36" type="car" depart="338">
        <route edges="-917450542 1174874706"/>
    </vehicle>
    <vehicle id="veh_166" type="truck" depart="338">
        <route edges="4588647 -4588647 -917450542 1174874706"/>
    </vehicle>
    <vehicle id="veh_127" type="motorcycle" depart="342">
        <route edges="1112806233 4588647 -4588647 -917450542 1174874706"/>
    </vehicle>
    <vehicle id="veh_180" type="bus" depart="345">
        <route edges="136822578 917450543"/>
    </vehicle>
    <vehicle id="veh_37" type="car" depart="346">
        <route edges="4588647 -4588647 -917450542 1174874706"/>
    </vehicle>
    <vehicle id="modernjeepney_3" type="modern_jeepney" depart="352">
        <route edges="-4588647 -917450542 1174874706"/>
    </vehicle>
    <vehicle id="veh_38" type="car" depart="361">
        <route edges="4588647 -4588647 -917450542 1174874706"/>
    </vehicle>
    <vehicle id="veh_103" type="bicycle" depart="364">
        <route edges="4588647 -4588647 -917450542 1174874706"/>
    </vehicle>
    <vehicle id="veh_39" type="car" depart="369">
        <route edges="-4588647 -917450542"/>
    </vehicle>
    <vehicle id="veh_128" type="motorcycle" depart="371">
        <route edges="136822578 917450542 160192389"/>
    </vehicle>
    <vehicle id="jeepney_5" type="traditional_jeepney" depart="378">
        <route edges="-4588647 -917450542 1174874706"/>
    </vehicle>
    <vehicle id="veh_167" type="truck" depart="380">
        <route edges="4588647 -4588647 -917450542 1174874706"/>
    </vehicle>
    <vehicle id="veh_40" type="car" depart="381">
        <route edges="4588647 -4588647 -917450542 1174874706"/>
    </vehicle>
    <vehicle id="veh_129" type="motorcycle" depart="384">
        <route edges="-917450542 917450542 4588647"/>
    </vehicle>
    <vehicle id="veh_41" type="car" depart="393">
        <route edges="1112806233 160192389"/>
    </vehicle>
    <vehicle id="veh_42" type="car" depart="403">
        <route edges="-4588647 -917450542 917450543"/>
    </vehicle>
    <vehicle id="veh_43" type="car" depart="410">
        <route edges="1112806233 4588647"/>
    </vehicle>
    <vehicle id="veh_130" type="motorcycle" depart="411">
        <route edges="-4588647 160192389"/>
    </vehicle>
    <vehicle id="veh_44" type="car" depart="415">
        <route edges="1112806233 4588647 -4588647 -917450542 1174874706"/>
    </vehicle>
    <vehicle id="jeepney_6" type="traditional_jeepney" depart="415">
        <route edges="-4588647 -917450542 1174874706"/>
    </vehicle>
    <vehicle id="veh_168" type="truck" depart="422">
        <route edges="4588647 -4588647 -917450542 1174874706"/>
    </vehicle>
    <vehicle id="veh_45" type="car" depart="423">
        <route edges="4588647 -4588647 -917450542"/>
    </vehicle>
    <vehicle id="veh_46" type="car" depart="429">
        <route edges="136822578 917450542 4588647"/>
    </vehicle>
    <vehicle id="veh_131" type="motorcycle" depart="432">
        <route edges="-4588647 -917450542 917450543"/>
    </vehicle>
    <vehicle id="veh_47" type="car" depart="433">
        <route edges="136822578 1174874706"/>
    </vehicle>
    <vehicle id="modernjeepney_4" type="modern_jeepney" depart="440">
        <route edges="1112806233 4588647"/>
    </vehicle>
    <vehicle id="veh_48" type="car" depart="443">
        <route edges="-917450542 1174874706"/>
    </vehicle>
    <vehicle id="veh_49" type="car" depart="447">
        <route edges="-917450542 917450542 4588647"/>
    </vehicle>
    <vehicle id="veh_132" type="motorcycle" depart="454">
        <route edges="-4588647 160192389"/>
    </vehicle>
    <vehicle id="veh_50" type="car" depart="462">
        <route edges="136822578 917450543"/>
    </vehicle>
    <vehicle id="veh_169" type="truck" depart="464">
        <route edges="-4588647 -917450542"/>
    </vehicle>
    <vehicle id="veh_104" type="bicycle" depart="470">
        <route edges="1174874706"/>
    </vehicle>
    <vehicle id="veh_51" type="car" depart="472">
        <route edges="1174874706"/>
    </vehicle>
    <vehicle id="veh_133" type="motorcycle" depart="472">
        <route edges="-4588647 -917450542 917450543"/>
    </vehicle>
    <vehicle id="jeepney_7" type="traditional_jeepney" depart="481">
        <route edges="1112806233 4588647"/>
    </vehicle>
    <vehicle id="veh_52" type="car" depart="487">
        <route edges="775437708 917450543"/>
    </vehicle>
    <vehicle id="veh_134" type="motorcycle" depart="489">
        <route edges="-4588647 -917450542 1174874706"/>
    </vehicle>
    <vehicle id="veh_53" type="car" depart="491">
        <route edges="136822578 917450542 -917450542"/>
    </vehicle>
    <vehicle id="veh_54" type="car" depart="502">
        <route edges="-4588647 -917450542 1174874706"/>
    </vehicle>
    <vehicle id="veh_135" type="motorcycle" depart="505">
        <route edges="-4588647 -917450542 1174874706"/>
    </vehicle>
    <vehicle id="veh_55" type="car" depart="507">
        <route edges="-4588647 -917450542"/>
    </vehicle>
    <vehicle id="veh_170" type="truck" depart="509">
        <route edges="-917450542 917450542 4588647 -4588647"/>
    </vehicle>
    <vehicle id="veh_56" type="car" depart="515">
        <route edges="136822578 917450542 160192389"/>
    </vehicle>
    <vehicle id="veh_136" type="motorcycle" depart="519">
        <route edges="1174874706"/>
    </vehicle>
    <vehicle id="modernjeepney_5" type="modern_jeepney" depart="526">
        <route edges="-4588647 -917450542 1174874706"/>
    </vehicle>
    <vehicle id="veh_57" type="car" depart="528">
        <route edges="4588647 -4588647 160192389"/>
    </vehicle>
    <vehicle id="veh_181" type="bus" depart="533">
        <route edges="-917450542 917450542 4588647 -4588647"/>
    </vehicle>
    <vehicle id="veh_58" type="car" depart="534">
        <route edges="4588647 -4588647 -917450542 1174874706"/>
    </vehicle>
    <vehicle id="veh_137" type="motorcycle" depart="535">
        <route edges="1112806233 4588647 -4588647 -917450542"/>
    </vehicle>
    <vehicle id="veh_59" type="car" depart="540">
        <route edges="136822578 1174874706"/>
    </vehicle>
    <vehicle id="veh_138" type="motorcycle" depart="547">
        <route edges="-4588647 -917450542 1174874706"/>
    </vehicle>
    <vehicle id="veh_171" type="truck" depart="549">
        <route edges="4588647 -4588647"/>
    </vehicle>
    <vehicle id="jeepney_8" type="traditional_jeepney" depart="550">
        <route edges="1112806233 4588647"/>
    </vehicle>
    <vehicle id="veh_60" type="car" depart="555">
        <route edges="136822578 917450542 160192389"/>
    </vehicle>
    <vehicle id="veh_61" type="car" depart="564">
        <route edges="1112806233 4588647"/>
    </vehicle>
    <vehicle id="veh_105" type="bicycle" depart="565">
        <route edges="-4588647 -917450542"/>
    </vehicle>
    <vehicle id="veh_139" type="motorcycle" depart="568">
        <route edges="136822578 1174874706"/>
    </vehicle>
    <vehicle id="veh_62" type="car" depart="576">
        <route edges="136822578 917450542 4588647"/>
    </vehicle>
    <vehicle id="veh_63" type="car" depart="578">
        <route edges="1112806233 160192389"/>
    </vehicle>
    <vehicle id="veh_140" type="motorcycle" depart="583">
        <route edges="1174874706"/>
    </vehicle>
    <vehicle id="veh_64" type="car" depart="589">
        <route edges="136822578 917450542 160192389"/>
    </vehicle>
    <vehicle id="veh_172" type="truck" depart="593">
        <route edges="4588647 -4588647 160192389"/>
    </vehicle>
    <vehicle id="veh_65" type="car" depart="597">
        <route edges="136822578 917450543"/>
    </vehicle>
    <vehicle id="veh_141" type="motorcycle" depart="599">
        <route edges="1112806233 4588647 -4588647 -917450542 1174874706"/>
    </vehicle>
    <vehicle id="veh_66" type="car" depart="607">
        <route edges="1112806233 4588647"/>
    </vehicle>
    <vehicle id="modernjeepney_6" type="modern_jeepney" depart="610">
        <route edges="1112806233 4588647"/>
    </vehicle>
    <vehicle id="veh_67" type="car" depart="612">
        <route edges="4588647 -4588647 -917450542 917450543"/>
    </vehicle>
    <vehicle id="veh_142" type="motorcycle" depart="612">
        <route edges="136822578 917450542 4588647 -4588647"/>
    </vehicle>
    <vehicle id="jeepney_9" type="traditional_jeepney" depart="613">
        <route edges="1112806233 4588647"/>
    </vehicle>
    <vehicle id="veh_68" type="car" depart="619">
        <route edges="-917450542 917450542 160192389"/>
    </vehicle>
    <vehicle id="veh_143" type="motorcycle" depart="625">
        <route edges="136822578 1174874706"/>
    </vehicle>
    <vehicle id="veh_69" type="car" depart="626">
        <route edges="136822578 1174874706"/>
    </vehicle>
    <vehicle id="veh_70" type="car" depart="638">
        <route edges="-917450542 917450543"/>
    </vehicle>
    <vehicle id="veh_106" type="bicycle" depart="639">
        <route edges="-4588647 -917450542 1174874706"/>
    </vehicle>
    <vehicle id="veh_144" type="motorcycle" depart="641">
        <route edges="-917450542 917450542 4588647"/>
    </vehicle>
    <vehicle id="veh_173" type="truck" depart="642">
        <route edges="1112806233 4588647 -4588647 -917450542"/>
    </vehicle>
    <vehicle id="veh_145" type="motorcycle" depart="652">
        <route edges="136822578 917450542 4588647"/>
    </vehicle>
    <vehicle id="veh_71" type="car" depart="653">
        <route edges="1112806233 4588647 -4588647 -917450542 1174874706"/>
    </vehicle>
    <vehicle id="veh_72" type="car" depart="659">
        <route edges="136822578 917450543"/>
    </vehicle>
    <vehicle id="veh_73" type="car" depart="667">
        <route edges="4588647 -4588647"/>
    </vehicle>
    <vehicle id="veh_146" type="motorcycle" depart="667">
        <route edges="136822578 917450543"/>
    </vehicle>
    <vehicle id="jeepney_10" type="traditional_jeepney" depart="670">
        <route edges="-4588647 -917450542 1174874706"/>
    </vehicle>
    <vehicle id="veh_74" type="car" depart="675">
        <route edges="-4588647 -917450542 1174874706"/>
    </vehicle>
    <vehicle id="veh_147" type="motorcycle" depart="678">
        <route edges="1112806233 4588647 -4588647 -917450542 1174874706"/>
    </vehicle>
    <vehicle id="veh_75" type="car" depart="687">
        <route edges="1112806233 4588647"/>
    </vehicle>
    <vehicle id="veh_174" type="truck" depart="691">
        <route edges="-4588647 4588647"/>
    </vehicle>
    <vehicle id="veh_76" type="car" depart="692">
        <route edges="4588647 -4588647 160192389"/>
    </vehicle>
    <vehicle id="veh_77" type="car" depart="697">
        <route edges="4588647 -4588647"/>
    </vehicle>
    <vehicle id="veh_148" type="motorcycle" depart="699">
        <route edges="-917450542 1174874706"/>
    </vehicle>
    <vehicle id="modernjeepney_7" type="modern_jeepney" depart="701">
        <route edges="1112806233 4588647"/>
    </vehicle>
    <vehicle id="veh_78" type="car" depart="706">
        <route edges="4588647 -4588647 -917450542 1174874706"/>
    </vehicle>
    <vehicle id="veh_79" type="car" depart="714">
        <route edges="1112806233 4588647 -4588647 -917450542 917450543"/>
    </vehicle>
    <vehicle id="jeepney_11" type="traditional_jeepney" depart="716">
        <route edges="1112806233 4588647"/>
    </vehicle>
    <vehicle id="veh_182" type="bus" depart="717">
        <route edges="4588647 -4588647 -917450542"/>
    </vehicle>
    <vehicle id="veh_149" type="motorcycle" depart="718">
        <route edges="-917450542 917450543"/>
    </vehicle>
    <vehicle id="veh_80" type="car" depart="721">
        <route edges="4588647 -4588647 -917450542 1174874706"/>
    </vehicle>
    <vehicle id="veh_81" type="car" depart="731">
        <route edges="136822578 917450542 4588647 -4588647"/>
    </vehicle>
    <vehicle id="veh_107" type="bicycle" depart="732">
        <route edges="1112806233 4588647 -4588647 -917450542 1174874706"/>
    </vehicle>
    <vehicle id="veh_150" type="motorcycle" depart="737">
        <route edges="4588647 -4588647 -917450542 917450543"/>
    </vehicle>
    <vehicle id="veh_175" type="truck" depart="737">
        <route edges="1174874706"/>
    </vehicle>
    <vehicle id="veh_82" type="car" depart="744">
        <route edges="4588647 -4588647 160192389"/>
    </vehicle>
    <vehicle id="veh_83" type="car" depart="750">
        <route edges="136822578 1174874706"/>
    </vehicle>
    <vehicle id="veh_151" type="motorcycle" depart="754">
        <route edges="4588647 -4588647 160192389"/>
    </vehicle>
    <vehicle id="veh_84" type="car" depart="761">
        <route edges="4588647 -4588647 -917450542 917450543"/>
    </vehicle>
    <vehicle id="jeepney_12" type="traditional_jeepney" depart="768">
        <route edges="-4588647 -917450542 1174874706"/>
    </vehicle>
    <vehicle id="veh_85" type="car" depart="771">
        <route edges="-4588647 -917450542 1174874706"/>
    </vehicle>
    <vehicle id="veh_176" type="truck" depart="773">
        <route edges="775437708 917450543"/>
    </vehicle>
    <vehicle id="veh_86" type="car" depart="778">
        <route edges="1174874706"/>
    </vehicle>
    <vehicle id="veh_152" type="motorcycle" depart="783">
        <route edges="1174874706"/>
    </vehicle>
    <vehicle id="veh_87" type="car" depart="785">
        <route edges="1112806233 4588647"/>
    </vehicle>
    <vehicle id="modernjeepney_8" type="modern_jeepney" depart="785">
        <route edges="-4588647 -917450542 1174874706"/>
    </vehicle>
    <vehicle id="veh_88" type="car" depart="789">
        <route edges="-917450542 917450542 4588647 -4588647"/>
    </vehicle>
    <vehicle id="veh_89" type="car" depart="801">
        <route edges="-4588647 4588647"/>
    </vehicle>
    <vehicle id="veh_153" type="motorcycle" depart="803">
        <route edges="136822578 1174874706"/>
    </vehicle>
    <vehicle id="veh_90" type="car" depart="811">
        <route edges="1112806233 4588647 -4588647 -917450542 1174874706"/>
    </vehicle>
    <vehicle id="veh_177" type="truck" depart="811">
        <route edges="-4588647 -917450542 917450543"/>
    </vehicle>
    <vehicle id="veh_91" type="car" depart="814">
        <route edges="1174874706"/>
    </vehicle>
    <vehicle id="veh_154" type="motorcycle" depart="819">
        <route edges="4588647 -4588647 160192389"/>
    </vehicle>
    <vehicle id="veh_108" type="bicycle" depart="821">
        <route edges="1112806233 4588647 -4588647"/>
    </vehicle>
    <vehicle id="veh_92" type="car" depart="822">
        <route edges="136822578 917450542 160192389"/>
    </vehicle>
    <vehicle id="veh_93" type="car" depart="831">
        <route edges="-4588647 4588647"/>
    </vehicle>
    <vehicle id="veh_155" type="motorcycle" depart="833">
        <route edges="-917450542 917450542 4588647"/>
    </vehicle>
    <vehicle id="jeepney_13" type="traditional_jeepney" depart="836">
        <route edges="1112806233 4588647"/>
    </vehicle>
    <vehicle id="veh_94" type="car" depart="839">
        <route edges="-4588647 -917450542"/>
    </vehicle>
    <vehicle id="veh_95" type="car" depart="846">
        <route edges="4588647 -4588647 -917450542 917450543"/>
    </vehicle>
    <vehicle id="veh_156" type="motorcycle" depart="848">
        <route edges="1112806233 4588647 -4588647 -917450542"/>
    </vehicle>
    <vehicle id="veh_96" type="car" depart="851">
        <route edges="1174874706"/>
    </vehicle>
    <vehicle id="veh_97" type="car" depart="856">
        <route edges="1112806233 4588647 -4588647 -917450542 1174874706"/>
    </vehicle>
    <vehicle id="modernjeepney_9" type="modern_jeepney" depart="861">
        <route edges="1112806233 4588647"/>
    </vehicle>
    <vehicle id="veh_98" type="car" depart="865">
        <route edges="-4588647 -917450542 917450543"/>
    </vehicle>
    <vehicle id="veh_157" type="motorcycle" depart="866">
        <route edges="-917450542 917450542 4588647 -4588647"/>
    </vehicle>
    <vehicle id="veh_178" type="truck" depart="868">
        <route edges="-917450542 917450543"/>
    </vehicle>
    <vehicle id="veh_99" type="car" depart="875">
        <route edges="-4588647 4588647"/>
    </vehicle>
    <vehicle id="veh_158" type="motorcycle" depart="884">
        <route edges="136822578 1174874706"/>
    </vehicle>
    <vehicle id="jeepney_14" type="traditional_jeepney" depart="891">
        <route edges="1112806233 4588647"/>
    </vehicle>
    <vehicle id="veh_183" type="bus" depart="894">
        <route edges="-917450542 917450542 160192389"/>
    </vehicle>
    <vehicle id="veh_209" type="car" depart="912">
        <route edges="1112806233 160192389"/>
    </vehicle>
    <vehicle id="veh_210" type="car" depart="918">
        <route edges="-4588647 -917450542 1174874706"/>
    </vehicle>
    <vehicle id="veh_211" type="car" depart="929">
        <route edges="-917450542 917450542 4588647 -4588647"/>
    </vehicle>
    <vehicle id="veh_292" type="motorcycle" depart="933">
        <route edges="-917450542 917450542 160192389"/>
    </vehicle>
    <vehicle id="veh_212" type="car" depart="942">
        <route edges="136822578 917450542 4588647"/>
    </vehicle>
    <vehicle id="veh_213" type="car" depart="949">
        <route edges="-4588647 160192389"/>
    </vehicle>
    <vehicle id="veh_331" type="truck" depart="949">
        <route edges="4588647 -4588647 -917450542 1174874706"/>
    </vehicle>
    <vehicle id="veh_293" type="motorcycle" depart="955">
        <route edges="4588647 -4588647 -917450542"/>
    </vehicle>
    <vehicle id="veh_214" type="car" depart="969">
        <route edges="1112806233 160192389"/>
    </vehicle>
    <vehicle id="veh_215" type="car" depart="986">
        <route edges="-917450542 1174874706"/>
    </vehicle>
    <vehicle id="veh_294" type="motorcycle" depart="986">
        <route edges="1112806233 4588647 -4588647"/>
    </vehicle>
    <vehicle id="veh_332" type="truck" depart="994">
        <route edges="-4588647 4588647"/>
    </vehicle>
    <vehicle id="jeepney_15" type="traditional_jeepney" depart="994">
        <route edges="1112806233 4588647"/>
    </vehicle>
    <vehicle id="veh_295" type="motorcycle" depart="999">
        <route edges="4588647 -4588647 -917450542 1174874706"/>
    </vehicle>
    <vehicle id="veh_216" type="car" depart="1000">
        <route edges="-917450542 1174874706"/>
    </vehicle>
    <vehicle id="modernjeepney_10" type="modern_jeepney" depart="1005">
        <route edges="1112806233 4588647"/>
    </vehicle>
    <vehicle id="veh_217" type="car" depart="1013">
        <route edges="-4588647 4588647"/>
    </vehicle>
    <vehicle id="veh_218" type="car" depart="1026">
        <route edges="1112806233 4588647"/>
    </vehicle>
    <vehicle id="veh_296" type="motorcycle" depart="1030">
        <route edges="1174874706"/>
    </vehicle>
    <vehicle id="veh_285" type="bicycle" depart="1036">
        <route edges="4588647 -4588647 -917450542 917450543"/>
    </vehicle>
    <vehicle id="veh_219" type="car" depart="1038">
        <route edges="4588647 -4588647"/>
    </vehicle>
    <vehicle id="veh_333" type="truck" depart="1049">
        <route edges="-4588647 160192389"/>
    </vehicle>
    <vehicle id="veh_220" type="car" depart="1053">
        <route edges="-917450542 1174874706"/>
    </vehicle>
    <vehicle id="veh_297" type="motorcycle" depart="1053">
        <route edges="775437708 917450543"/>
    </vehicle>
    <vehicle id="veh_221" type="car" depart="1065">
        <route edges="136822578 917450542 4588647"/>
    </vehicle>
    <vehicle id="veh_346" type="bus" depart="1069">
        <route edges="-917450542 917450542 4588647"/>
    </vehicle>
    <vehicle id="jeepney_16" type="traditional_jeepney" depart="1072">
        <route edges="1112806233 4588647"/>
    </vehicle>
    <vehicle id="veh_298" type="motorcycle" depart="1077">
        <route edges="4588647 -4588647 160192389"/>
    </vehicle>
    <vehicle id="veh_222" type="car" depart="1079">
        <route edges="-917450542 1174874706"/>
    </vehicle>
    <vehicle id="modernjeepney_11" type="modern_jeepney" depart="1084">
        <route edges="-4588647 -917450542 1174874706"/>
    </vehicle>
    <vehicle id="veh_223" type="car" depart="1089">
        <route edges="-917450542 917450542 4588647"/>
    </vehicle>
    <vehicle id="veh_299" type="motorcycle" depart="1097">
        <route edges="136822578 917450542 4588647 -4588647"/>
    </vehicle>
    <vehicle id="veh_224" type="car" depart="1110">
        <route edges="136822578 917450543"/>
    </vehicle>
    <vehicle id="veh_300" type="motorcycle" depart="1116">
        <route edges="1174874706"/>
    </vehicle>
    <vehicle id="veh_334" type="truck" depart="1118">
        <route edges="1112806233 4588647 -4588647 -917450542 917450543"/>
    </vehicle>
    <vehicle id="jeepney_17" type="traditional_jeepney" depart="1129">
        <route edges="1112806233 4588647"/>
    </vehicle>
    <vehicle id="veh_225" type="car" depart="1131">