<?xml version='1.0' encoding='utf-8'?>
<routes>
  <vehicle id="veh_0" type="car" depart="52.90957464375907">
    <route edges=":617559628_7 :610445242_0" />
    </vehicle>
  <vehicle id="veh_1" type="car" depart="68.02018964294831">
    <route edges=":617559628_6 :617559628_11" />
    </vehicle>
  <vehicle id="veh_2" type="car" depart="653.8139916734997">
    <route edges="-917450542 :617559628_6" />
    </vehicle>
  <vehicle id="veh_3" type="car" depart="371.51001141084856">
    <route edges="1112806233 :617559628_7" />
    </vehicle>
  <vehicle id="veh_4" type="car" depart="472.83645983665247">
    <route edges=":cluster_25353323_61091676_15 :cluster_25353323_61091676_4" />
    </vehicle>
  <vehicle id="veh_5" type="car" depart="478.2631221135643">
    <route edges=":cluster_25353323_61091676_3 1112806233" />
    </vehicle>
  <vehicle id="veh_6" type="car" depart="782.8792790325851">
    <route edges=":617559628_4 1112806233" />
    </vehicle>
  <vehicle id="veh_7" type="car" depart="397.23004218470084">
    <route edges=":cluster_25353323_61091676_3 :617559628_4" />
    </vehicle>
  <vehicle id="veh_8" type="car" depart="686.4959624443007">
    <route edges=":617559628_11 :617559628_10" />
    </vehicle>
  <vehicle id="veh_9" type="car" depart="418.3025676058185">
    <route edges=":cluster_25353323_61091676_5 :617559628_11" />
    </vehicle>
  <vehicle id="veh_10" type="car" depart="601.7742603277346">
    <route edges="4588647 :610445242_0" />
    </vehicle>
  <vehicle id="veh_11" type="car" depart="43.990738961100625">
    <route edges=":cluster_25353323_61091676_7 :cluster_25353323_61091676_10" />
    </vehicle>
  <vehicle id="veh_12" type="car" depart="628.5749856905726">
    <route edges=":cluster_25353323_61091676_3 775437708" />
    </vehicle>
  <vehicle id="veh_13" type="car" depart="424.61678143954146">
    <route edges=":cluster_25353323_61091676_0 :cluster_25353323_61091676_3" />
    </vehicle>
  <vehicle id="veh_14" type="car" depart="97.55884525425192">
    <route edges=":617559628_10 :617559628_0" />
    </vehicle>
  <vehicle id="veh_15" type="car" depart="808.2933232867239">
    <route edges=":cluster_25353323_61091676_15 1174874706" />
    </vehicle>
  <vehicle id="veh_16" type="car" depart="838.627180449817">
    <route edges=":610445242_0 1112806233" />
    </vehicle>
  <vehicle id="veh_17" type="car" depart="786.7330268442832">
    <route edges=":cluster_25353323_61091676_9 :617559628_6" />
    </vehicle>
  <vehicle id="veh_18" type="car" depart="202.55691991748134">
    <route edges="-917450542 :617559628_7" />
    </vehicle>
  <vehicle id="veh_19" type="car" depart="899.9649350195291">
    <route edges="1112806233 160192389" />
    </vehicle>
  <vehicle id="veh_20" type="car" depart="836.2086936945303">
    <route edges="4588647 :617559628_1" />
    </vehicle>
  <vehicle id="veh_21" type="car" depart="114.93281356115959">
    <route edges=":cluster_25353323_61091676_15 :cluster_25353323_61091676_0" />
    </vehicle>
  <vehicle id="veh_22" type="car" depart="728.7690485911015">
    <route edges=":cluster_25353323_61091676_14 :617559628_0" />
    </vehicle>
  <vehicle id="veh_23" type="car" depart="707.4386938341353">
    <route edges="-917450542 :617559628_4" />
    </vehicle>
  <vehicle id="veh_24" type="car" depart="355.15195375844746">
    <route edges="4588647 -917450542" />
    </vehicle>
  <vehicle id="veh_25" type="car" depart="786.6100864640341">
    <route edges=":cluster_25353323_61091676_14 -4588647" />
    </vehicle>
  <vehicle id="veh_26" type="car" depart="71.9270034454519">
    <route edges=":617559628_3 917450542" />
    </vehicle>
  <vehicle id="veh_27" type="car" depart="890.3228302299234">
    <route edges="1112806233 :610445242_0" />
    </vehicle>
  <vehicle id="veh_28" type="car" depart="530.2317333758889">
    <route edges=":617559628_10 :cluster_25353323_61091676_7" />
    </vehicle>
  <vehicle id="veh_29" type="car" depart="403.8735391543705">
    <route edges=":617559628_6 :cluster_25353323_61091676_10" />
    </vehicle>
  <vehicle id="veh_30" type="car" depart="154.419151338591">
    <route edges="4588647 :cluster_25353323_61091676_10" />
    </vehicle>
  <vehicle id="veh_31" type="car" depart="504.7666324744724">
    <route edges=":cluster_25353323_61091676_4 :cluster_25353323_61091676_10" />
    </vehicle>
  <vehicle id="veh_32" type="car" depart="391.919532516562">
    <route edges="160192389 :617559628_2" />
    </vehicle>
  <vehicle id="veh_33" type="car" depart="182.62314240622158">
    <route edges=":617559628_3 160192389" />
    </vehicle>
  <vehicle id="veh_34" type="car" depart="441.0352102994428">
    <route edges="1174874706 :617559628_7" />
    </vehicle>
  <vehicle id="veh_35" type="car" depart="536.067692428348">
    <route edges="-917450542 4588647" />
    </vehicle>
  <vehicle id="veh_36" type="car" depart="868.450435678944">
    <route edges="1174874706 :cluster_25353323_61091676_5" />
    </vehicle>
  <vehicle id="veh_37" type="car" depart="506.5377791824126">
    <route edges=":617559628_3 :617559628_8" />
    </vehicle>
  <vehicle id="veh_38" type="car" depart="187.0620275114241">
    <route edges=":cluster_25353323_61091676_9 :617559628_11" />
    </vehicle>
  <vehicle id="veh_39" type="car" depart="674.445289527274">
    <route edges=":cluster_25353323_61091676_0 136822578" />
    </vehicle>
  <vehicle id="veh_40" type="car" depart="866.5237273671147">
    <route edges="160192389 -4588647" />
    </vehicle>
  <vehicle id="veh_41" type="car" depart="430.12193369058474">
    <route edges=":cluster_25353323_61091676_5 917450543" />
    </vehicle>
  <vehicle id="veh_42" type="car" depart="800.6253412767345">
    <route edges=":cluster_25353323_61091676_9 :cluster_25353323_61091676_7" />
    </vehicle>
  <vehicle id="veh_43" type="car" depart="694.6265849289841">
    <route edges=":617559628_9 :610445242_0" />
    </vehicle>
  <vehicle id="veh_44" type="car" depart="194.1691069387509">
    <route edges=":617559628_2 :617559628_8" />
    </vehicle>
  <vehicle id="veh_45" type="car" depart="796.7660259126569">
    <route edges="917450543 :617559628_7" />
    </vehicle>
  <vehicle id="veh_46" type="car" depart="5.085188322518919">
    <route edges=":cluster_25353323_61091676_14 :cluster_25353323_61091676_10" />
    </vehicle>
  <vehicle id="veh_47" type="car" depart="275.658685832508">
    <route edges=":cluster_25353323_61091676_4 :610445242_0" />
    </vehicle>
  <vehicle id="veh_48" type="car" depart="510.86924807425214">
    <route edges="160192389 :617559628_10" />
    </vehicle>
  <vehicle id="veh_49" type="car" depart="228.64147878335194">
    <route edges=":cluster_25353323_61091676_4 :617559628_7" />
    </vehicle>
  <vehicle id="veh_50" type="car" depart="785.9680127118738">
    <route edges=":cluster_25353323_61091676_5 :617559628_3" />
    </vehicle>
  <vehicle id="veh_51" type="car" depart="578.7610748601829">
    <route edges=":617559628_1 :cluster_25353323_61091676_10" />
    </vehicle>
  <vehicle id="veh_52" type="car" depart="197.99917245861727">
    <route edges=":cluster_25353323_61091676_4 :cluster_25353323_61091676_0" />
    </vehicle>
  <vehicle id="veh_53" type="car" depart="275.93823772636546">
    <route edges="-917450542 :cluster_25353323_61091676_4" />
    </vehicle>
  <vehicle id="veh_54" type="car" depart="255.01834645234362">
    <route edges=":617559628_4 :617559628_8" />
    </vehicle>
  <vehicle id="veh_55" type="car" depart="505.44306860254585">
    <route edges=":617559628_1 :617559628_8" />
    </vehicle>
  <vehicle id="veh_56" type="car" depart="463.8006733494408">
    <route edges="160192389 :617559628_0" />
    </vehicle>
  <vehicle id="veh_57" type="car" depart="884.3785102752864">
    <route edges=":cluster_25353323_61091676_4 1174874706" />
    </vehicle>
  <vehicle id="veh_58" type="car" depart="42.18711733384593">
    <route edges=":617559628_9 :617559628_11" />
    </vehicle>
  <vehicle id="veh_59" type="car" depart="159.95727639128492">
    <route edges=":617559628_8 :610445242_0" />
    </vehicle>
  <vehicle id="veh_60" type="car" depart="172.03382457692177">
    <route edges="775437708 917450543" />
    </vehicle>
  <vehicle id="veh_61" type="car" depart="94.93259054010174">
    <route edges="136822578 :cluster_25353323_61091676_14" />
    </vehicle>
  <vehicle id="veh_62" type="car" depart="700.8315350729641">
    <route edges="775437708 :617559628_10" />
    </vehicle>
  <vehicle id="veh_63" type="car" depart="90.12336060565053">
    <route edges="917450543 :cluster_25353323_61091676_3" />
    </vehicle>
  <vehicle id="veh_64" type="car" depart="208.32798135966752">
    <route edges="-917450542 -4588647" />
    </vehicle>
  <vehicle id="veh_65" type="car" depart="390.3884143775004">
    <route edges=":cluster_25353323_61091676_5 917450543" />
    </vehicle>
  <vehicle id="veh_66" type="car" depart="804.3536102203714">
    <route edges="-917450542 :617559628_11" />
    </vehicle>
  <vehicle id="veh_67" type="car" depart="6.286753596428474">
    <route edges=":cluster_25353323_61091676_4 :617559628_0" />
    </vehicle>
  <vehicle id="veh_68" type="car" depart="398.5810525810912">
    <route edges=":cluster_25353323_61091676_5 :617559628_6" />
    </vehicle>
  <vehicle id="veh_69" type="car" depart="29.312888528238467">
    <route edges=":617559628_3 :cluster_25353323_61091676_5" />
    </vehicle>
  <vehicle id="veh_70" type="car" depart="395.0637414091245">
    <route edges=":cluster_25353323_61091676_14 :617559628_4" />
    </vehicle>
  <vehicle id="veh_71" type="car" depart="381.6327991437663">
    <route edges=":617559628_0 :cluster_25353323_61091676_14" />
    </vehicle>
  <vehicle id="veh_72" type="car" depart="481.505770200012">
    <route edges=":617559628_4 :617559628_7" />
    </vehicle>
  <vehicle id="veh_73" type="car" depart="572.0214684006403">
    <route edges=":cluster_25353323_61091676_5 :617559628_6" />
    </vehicle>
  <vehicle id="veh_74" type="car" depart="824.8737274260477">
    <route edges="775437708 :617559628_10" />
    </vehicle>
  <vehicle id="veh_75" type="car" depart="541.5821164569211">
    <route edges=":617559628_2 775437708" />
    </vehicle>
  <vehicle id="veh_76" type="car" depart="740.5498859042402">
    <route edges=":cluster_25353323_61091676_14 1112806233" />
    </vehicle>
  <vehicle id="veh_77" type="car" depart="457.9160033186491">
    <route edges="-4588647 :617559628_1" />
    </vehicle>
  <vehicle id="veh_78" type="car" depart="258.2072779573754">
    <route edges=":617559628_4 :617559628_10" />
    </vehicle>
  <vehicle id="veh_79" type="car" depart="750.5804516757429">
    <route edges=":617559628_7 :617559628_9" />
    </vehicle>
  <vehicle id="veh_80" type="car" depart="359.23917101330807">
    <route edges=":cluster_25353323_61091676_7 -917450542" />
    </vehicle>
  <vehicle id="veh_81" type="car" depart="401.335967464046">
    <route edges=":617559628_7 -4588647" />
    </vehicle>
  <vehicle id="veh_82" type="car" depart="715.8053295112531">
    <route edges=":617559628_7 :cluster_25353323_61091676_14" />
    </vehicle>
  <vehicle id="veh_83" type="car" depart="570.5900047626787">
    <route edges=":617559628_0 1112806233" />
    </vehicle>
  <vehicle id="veh_84" type="car" depart="378.8936606612593">
    <route edges="1174874706 :617559628_9" />
    </vehicle>
  <vehicle id="veh_85" type="car" depart="493.1603446884211">
    <route edges=":cluster_25353323_61091676_10 -4588647" />
    </vehicle>
  <vehicle id="veh_86" type="car" depart="464.58511541191973">
    <route edges=":cluster_25353323_61091676_3 :cluster_25353323_61091676_4" />
    </vehicle>
  <vehicle id="veh_87" type="car" depart="301.0197008395811">
    <route edges="775437708 136822578" />
    </vehicle>
  <vehicle id="veh_88" type="car" depart="776.5051875860994">
    <route edges=":617559628_3 1112806233" />
    </vehicle>
  <vehicle id="veh_89" type="car" depart="198.15370878787087">
    <route edges="-917450542 -4588647" />
    </vehicle>
  <vehicle id="veh_90" type="car" depart="779.009176719706">
    <route edges=":617559628_9 :617559628_10" />
    </vehicle>
  <vehicle id="veh_91" type="car" depart="476.94582469838167">
    <route edges=":cluster_25353323_61091676_0 :617559628_2" />
    </vehicle>
  <vehicle id="veh_92" type="car" depart="130.05510288774184">
    <route edges=":617559628_10 917450542" />
    </vehicle>
  <vehicle id="veh_93" type="car" depart="1562.692710658766">
    <route edges=":617559628_8 -917450542" />
    </vehicle>
  <vehicle id="veh_94" type="car" depart="950.9321203158808">
    <route edges=":617559628_1 :617559628_6" />
    </vehicle>
  <vehicle id="veh_95" type="car" depart="1113.1062671040681">
    <route edges=":cluster_25353323_61091676_7 :617559628_7" />
    </vehicle>
  <vehicle id="veh_96" type="car" depart="1240.291109892315">
    <route edges=":617559628_1 1112806233" />
    </vehicle>
  <vehicle id="veh_97" type="car" depart="1011.9174992824798">
    <route edges=":617559628_0 1112806233" />
    </vehicle>
  <vehicle id="veh_98" type="car" depart="1716.7501966918667">
    <route edges=":617559628_9 :617559628_8" />
    </vehicle>
  <vehicle id="veh_99" type="car" depart="1706.1310441823316">
    <route edges="1174874706 :617559628_1" />
    </vehicle>
  <vehicle id="veh_100" type="car" depart="1782.9853157669866">
    <route edges=":cluster_25353323_61091676_10 775437708" />
    </vehicle>
  <vehicle id="veh_101" type="car" depart="1202.1458209021725">
    <route edges="917450542 :cluster_25353323_61091676_3" />
    </vehicle>
  <vehicle id="veh_102" type="car" depart="1017.684450686631">
    <route edges="160192389 136822578" />
    </vehicle>
  <vehicle id="veh_103" type="car" depart="1469.4487381724834">
    <route edges=":617559628_0 :cluster_25353323_61091676_9" />
    </vehicle>
  <vehicle id="veh_104" type="car" depart="1367.884064525957">
    <route edges=":617559628_7 :617559628_1" />
    </vehicle>
  <vehicle id="veh_105" type="car" depart="978.9367282444691">
    <route edges=":cluster_25353323_61091676_3 :cluster_25353323_61091676_15" />
    </vehicle>
  <vehicle id="veh_106" type="car" depart="1544.8398731059547">
    <route edges=":cluster_25353323_61091676_3 160192389" />
    </vehicle>
  <vehicle id="veh_107" type="car" depart="1611.6665125637905">
    <route edges="917450543 136822578" />
    </vehicle>
  <vehicle id="veh_108" type="car" depart="1359.120988683082">
    <route edges=":617559628_3 :617559628_2" />
    </vehicle>
  <vehicle id="veh_109" type="car" depart="1340.2373261161451">
    <route edges=":cluster_25353323_61091676_4 :617559628_11" />
    </vehicle>
  <vehicle id="veh_110" type="car" depart="1176.690988995517">
    <route edges=":cluster_25353323_61091676_10 :610445242_0" />
    </vehicle>
  <vehicle id="veh_111" type="car" depart="1331.7015793380094">
    <route edges=":cluster_25353323_61091676_9 -917450542" />
    </vehicle>
  <vehicle id="veh_112" type="car" depart="1528.3101631370535">
    <route edges=":617559628_11 -917450542" />
    </vehicle>
  <vehicle id="veh_113" type="car" depart="1090.4722266684012">
    <route edges="917450543 1174874706" />
    </vehicle>
  <vehicle id="veh_114" type="car" depart="1478.9724329048645">
    <route edges=":617559628_1 :617559628_3" />
    </vehicle>
  <vehicle id="veh_115" type="car" depart="1362.6868382975974">
    <route edges=":610445242_0 :cluster_25353323_61091676_10" />
    </vehicle>
  <vehicle id="veh_116" type="car" depart="1634.4740923413572">
    <route edges=":cluster_25353323_61091676_3 :cluster_25353323_61091676_4" />
    </vehicle>
  <vehicle id="veh_117" type="car" depart="1190.0902460079565">
    <route edges=":617559628_10 4588647" />
    </vehicle>
  <vehicle id="veh_118" type="car" depart="1152.1026870896876">
    <route edges=":617559628_0 :cluster_25353323_61091676_15" />
    </vehicle>
  <vehicle id="veh_119" type="car" depart="1368.5750116441427">
    <route edges="917450542 917450543" />
    </vehicle>
  <vehicle id="veh_120" type="car" depart="1115.9639437489893">
    <route edges=":cluster_25353323_61091676_4 :617559628_8" />
    </vehicle>
  <vehicle id="veh_121" type="car" depart="1038.6060896277165">
    <route edges=":617559628_4 :cluster_25353323_61091676_3" />
    </vehicle>
  <vehicle id="veh_122" type="car" depart="1037.268656094784">
    <route edges="160192389 917450542" />
    </vehicle>
  <vehicle id="veh_123" type="car" depart="1527.5315579657733">
    <route edges="917450543 136822578" />
    </vehicle>
  <vehicle id="veh_124" type="car" depart="995.6508669358569">
    <route edges=":610445242_0 :617559628_6" />
    </vehicle>
  <vehicle id="veh_125" type="car" depart="1738.9340916094934">
    <route edges=":cluster_25353323_61091676_3 :617559628_1" />
    </vehicle>
  <vehicle id="veh_126" type="car" depart="1025.462263348872">
    <route edges=":cluster_25353323_61091676_4 :cluster_25353323_61091676_9" />
    </vehicle>
  <vehicle id="veh_127" type="car" depart="985.3404362579564">
    <route edges=":617559628_2 :cluster_25353323_61091676_9" />
    </vehicle>
  <vehicle id="veh_128" type="car" depart="907.6206785896928">
    <route edges=":cluster_25353323_61091676_0 1174874706" />
    </vehicle>
  <vehicle id="veh_129" type="car" depart="1403.4717303441232">
    <route edges="136822578 :cluster_25353323_61091676_3" />
    </vehicle>
  <vehicle id="veh_130" type="car" depart="1402.2951296932551">
    <route edges="1174874706 :617559628_1" />
    </vehicle>
  <vehicle id="veh_131" type="car" depart="1540.1942170993016">
    <route edges="1174874706 :617559628_1" />
    </vehicle>
  <vehicle id="veh_132" type="car" depart="1746.0918360567034">
    <route edges=":cluster_25353323_61091676_10 :617559628_9" />
    </vehicle>
  <vehicle id="veh_133" type="car" depart="1682.1628108155987">
    <route edges=":617559628_10 136822578" />
    </vehicle>
  <vehicle id="veh_134" type="car" depart="1338.5677540814665">
    <route edges=":617559628_9 917450543" />
    </vehicle>
  <vehicle id="veh_135" type="car" depart="1443.2777394035943">
    <route edges=":617559628_11 :cluster_25353323_61091676_0" />
    </vehicle>
  <vehicle id="veh_136" type="car" depart="1254.1373057363592">
    <route edges="136822578 :617559628_1" />
    </vehicle>
  <vehicle id="veh_137" type="car" depart="1207.4748199147757">
    <route edges="917450543 160192389" />
    </vehicle>
  <vehicle id="veh_138" type="car" depart="1020.008349760189">
    <route edges=":617559628_4 1112806233" />
    </vehicle>
  <vehicle id="veh_139" type="car" depart="1491.0560749497736">
    <route edges="775437708 :617559628_2" />
    </vehicle>
  <vehicle id="veh_140" type="car" depart="1201.1485916755967">
    <route edges=":617559628_1 :617559628_7" />
    </vehicle>
  <vehicle id="veh_141" type="car" depart="1209.1248949876613">
    <route edges="917450543 :617559628_8" />
    </vehicle>
  <vehicle id="veh_142" type="car" depart="1544.893585263805">
    <route edges=":617559628_11 917450543" />
    </vehicle>
  <vehicle id="veh_143" type="car" depart="1102.011810484507">
    <route edges=":617559628_3 :617559628_8" />
    </vehicle>
  <vehicle id="veh_144" type="car" depart="1033.735091472358">
    <route edges=":cluster_25353323_61091676_7 :cluster_25353323_61091676_10" />
    </vehicle>
  <vehicle id="veh_145" type="car" depart="1251.693312026024">
    <route edges=":617559628_3 -4588647" />
    </vehicle>
  <vehicle id="veh_146" type="car" depart="1069.795126718666">
    <route edges=":cluster_25353323_61091676_5 -917450542" />
    </vehicle>
  <vehicle id="veh_147" type="car" depart="1334.471608639659">
    <route edges=":617559628_9 :617559628_10" />
    </vehicle>
  <vehicle id="veh_148" type="car" depart="1027.3478821932106">
    <route edges="-917450542 :610445242_0" />
    </vehicle>
  <vehicle id="veh_149" type="car" depart="1446.5135760244086">
    <route edges=":cluster_25353323_61091676_3 1174874706" />
    </vehicle>
  <vehicle id="veh_150" type="car" depart="1524.326046780586">
    <route edges=":cluster_25353323_61091676_14 :cluster_25353323_61091676_4" />
    </vehicle>
  <vehicle id="veh_151" type="car" depart="984.8184073403759">
    <route edges=":617559628_1 :cluster_25353323_61091676_0" />
    </vehicle>
  <vehicle id="veh_152" type="car" depart="955.509064167113">
    <route edges="917450543 :cluster_25353323_61091676_14" />
    </vehicle>
  <vehicle id="veh_153" type="car" depart="1495.0911561241421">
    <route edges="917450543 :617559628_6" />
    </vehicle>
  <vehicle id="veh_154" type="car" depart="1591.714283879368">
    <route edges=":cluster_25353323_61091676_5 :cluster_25353323_61091676_3" />
    </vehicle>
  <vehicle id="veh_155" type="car" depart="1512.5928537405603">
    <route edges=":cluster_25353323_61091676_5 :cluster_25353323_61091676_14" />
    </vehicle>
  <vehicle id="veh_156" type="car" depart="1506.4023397152555">
    <route edges=":cluster_25353323_61091676_14 :617559628_1" />
    </vehicle>
  <vehicle id="veh_157" type="car" depart="955.2464734911883">
    <route edges=":cluster_25353323_61091676_0 917450542" />
    </vehicle>
  <vehicle id="veh_158" type="car" depart="1050.1538086213163">
    <route edges=":617559628_0 :cluster_25353323_61091676_7" />
    </vehicle>
  <vehicle id="veh_159" type="car" depart="1149.1858030109877">
    <route edges="917450542 4588647" />
    </vehicle>
  <vehicle id="veh_160" type="car" depart="1414.1949542012417">
    <route edges="-917450542 :cluster_25353323_61091676_9" />
    </vehicle>
  <vehicle id="veh_161" type="car" depart="1152.2104256611742">
    <route edges=":617559628_3 :cluster_25353323_61091676_10" />
    </vehicle>
  <vehicle id="veh_162" type="car" depart="1512.6692136319175">
    <route edges="-4588647 160192389" />
    </vehicle>
  <vehicle id="veh_163" type="car" depart="1465.8926958699212">
    <route edges=":cluster_25353323_61091676_14 :cluster_25353323_61091676_3" />
    </vehicle>
  <vehicle id="veh_164" type="car" depart="1650.9875252198478">
    <route edges="1112806233 :617559628_4" />
    </vehicle>
  <vehicle id="veh_165" type="car" depart="1468.3940483025135">
    <route edges=":cluster_25353323_61091676_0 -4588647" />
    </vehicle>
  <vehicle id="veh_166" type="car" depart="1499.0493821686887">
    <route edges=":617559628_9 1174874706" />
    </vehicle>
  <vehicle id="veh_167" type="car" depart="1530.0940414033903">
    <route edges="1174874706 4588647" />
    </vehicle>
  <vehicle id="veh_168" type="car" depart="1304.4276937215216">
    <route edges=":617559628_7 136822578" />
    </vehicle>
  <vehicle id="veh_169" type="car" depart="1780.839984729585">
    <route edges=":cluster_25353323_61091676_7 :cluster_25353323_61091676_15" />
    </vehicle>
  <vehicle id="veh_170" type="car" depart="1721.9392084934814">
    <route edges="1174874706 :617559628_2" />
    </vehicle>
  <vehicle id="veh_171" type="car" depart="1162.0083341761344">
    <route edges=":cluster_25353323_61091676_7 :617559628_10" />
    </vehicle>
  <vehicle id="veh_172" type="car" depart="1396.5605862247905">
    <route edges=":cluster_25353323_61091676_9 :617559628_3" />
    </vehicle>
  <vehicle id="veh_173" type="car" depart="1478.1548321496516">
    <route edges=":617559628_3 1174874706" />
    </vehicle>
  <vehicle id="veh_174" type="car" depart="1465.4179632623163">
    <route edges=":617559628_1 -917450542" />
    </vehicle>
  <vehicle id="veh_175" type="car" depart="1009.1091006281764">
    <route edges=":cluster_25353323_61091676_9 :cluster_25353323_61091676_14" />
    </vehicle>
  <vehicle id="veh_176" type="car" depart="1086.6136905559142">
    <route edges="917450542 775437708" />
    </vehicle>
  <vehicle id="veh_177" type="car" depart="914.8715442090934">
    <route edges=":617559628_7 :617559628_9" />
    </vehicle>
  <vehicle id="veh_178" type="car" depart="1099.8861140888762">
    <route edges=":617559628_2 4588647" />
    </vehicle>
  <vehicle id="veh_179" type="car" depart="1674.0001971791253">
    <route edges=":617559628_4 :617559628_7" />
    </vehicle>
  <vehicle id="veh_180" type="car" depart="1454.0625533896682">
    <route edges=":cluster_25353323_61091676_9 :617559628_2" />
    </vehicle>
  <vehicle id="veh_181" type="car" depart="1691.6410244237568">
    <route edges=":cluster_25353323_61091676_5 :617559628_3" />
    </vehicle>
  <vehicle id="veh_182" type="car" depart="1055.5424981083554">
    <route edges="4588647 917450543" />
    </vehicle>
  <vehicle id="veh_183" type="car" depart="1230.8077343732489">
    <route edges="136822578 917450543" />
    </vehicle>
  <vehicle id="veh_184" type="car" depart="1409.8939977595094">
    <route edges="1112806233 :617559628_4" />
    </vehicle>
  <vehicle id="veh_185" type="car" depart="1680.5135776644984">
    <route edges="1174874706 917450542" />
    </vehicle>
  <vehicle id="veh_186" type="car" depart="944.0344963546582">
    <route edges="1112806233 :617559628_10" />
    </vehicle>
  <vehicle id="veh_187" type="car" depart="1128.8513652700674">
    <route edges="-4588647 :cluster_25353323_61091676_5" />
    </vehicle>
  <vehicle id="veh_188" type="car" depart="1397.8656576895635">
    <route edges="917450543 917450542" />
    </vehicle>
  <vehicle id="veh_189" type="car" depart="1745.2193846392252">
    <route edges=":617559628_3 1112806233" />
    </vehicle>
  <vehicle id="veh_190" type="car" depart="1256.8664398629603">
    <route edges="136822578 :617559628_10" />
    </vehicle>
  <vehicle id="veh_191" type="car" depart="1539.1779641068365">
    <route edges=":617559628_10 :cluster_25353323_61091676_0" />
    </vehicle>
  <vehicle id="veh_192" type="car" depart="1011.4280124378656">
    <route edges="-917450542 :617559628_1" />
    </vehicle>
  <vehicle id="veh_193" type="car" depart="1611.4991980868335">
    <route edges="160192389 4588647" />
    </vehicle>
  <vehicle id="veh_194" type="car" depart="1362.944114428635">
    <route edges="4588647 917450543" />
    </vehicle>
  <vehicle id="veh_195" type="car" depart="1013.2216696799969">
    <route edges=":cluster_25353323_61091676_15 :617559628_3" />
    </vehicle>
  <vehicle id="veh_196" type="car" depart="901.5859356717685">
    <route edges=":cluster_25353323_61091676_7 -917450542" />
    </vehicle>
  <vehicle id="veh_197" type="car" depart="1338.377484601734">
    <route edges="775437708 4588647" />
    </vehicle>
  <vehicle id="veh_198" type="car" depart="979.5974001403686">
    <route edges="917450543 :617559628_10" />
    </vehicle>
  <vehicle id="veh_199" type="car" depart="1655.4739672630378">
    <route edges="917450542 :617559628_10" />
    </vehicle>
  <vehicle id="veh_200" type="car" depart="1509.5347366652786">
    <route edges=":617559628_3 1174874706" />
    </vehicle>
  <vehicle id="veh_201" type="car" depart="1509.8287905273655">
    <route edges=":617559628_9 :617559628_7" />
    </vehicle>
  <vehicle id="veh_202" type="car" depart="1094.8567850506813">
    <route edges=":617559628_8 1112806233" />
    </vehicle>
  <vehicle id="veh_203" type="car" depart="1523.9325284659585">
    <route edges=":617559628_2 :617559628_8" />
    </vehicle>
  <vehicle id="veh_204" type="car" depart="1184.3355755015057">
    <route edges=":617559628_1 :617559628_3" />
    </vehicle>
  <vehicle id="veh_205" type="car" depart="1583.7056309815202">
    <route edges=":cluster_25353323_61091676_3 :cluster_25353323_61091676_9" />
    </vehicle>
  <vehicle id="veh_206" type="car" depart="1445.9070199718353">
    <route edges=":cluster_25353323_61091676_3 :cluster_25353323_61091676_15" />
    </vehicle>
  <vehicle id="veh_207" type="car" depart="1145.67613373218">
    <route edges="-4588647 :cluster_25353323_61091676_4" />
    </vehicle>
  <vehicle id="veh_208" type="car" depart="1748.5634959227677">
    <route edges="160192389 :cluster_25353323_61091676_14" />
    </vehicle>
  <vehicle id="veh_209" type="car" depart="1342.223687117181">
    <route edges=":617559628_6 917450542" />
    </vehicle>
  <vehicle id="veh_210" type="car" depart="1061.0095407907963">
    <route edges="1112806233 -4588647" />
    </vehicle>
  <vehicle id="veh_211" type="car" depart="1679.1913602285667">
    <route edges=":617559628_8 :cluster_25353323_61091676_15" />
    </vehicle>
  <vehicle id="veh_212" type="car" depart="1193.2838929501568">
    <route edges=":617559628_6 :610445242_0" />
    </vehicle>
  <vehicle id="veh_213" type="car" depart="1745.108842500128">
    <route edges=":617559628_9 917450542" />
    </vehicle>
  <vehicle id="veh_214" type="car" depart="1125.487399702469">
    <route edges="160192389 :610445242_0" />
    </vehicle>
  <vehicle id="veh_215" type="car" depart="1065.428335994382">
    <route edges=":cluster_25353323_61091676_0 :617559628_11" />
    </vehicle>
  <vehicle id="veh_216" type="car" depart="1095.7657688055483">
    <route edges=":cluster_25353323_61091676_9 :cluster_25353323_61091676_15" />
    </vehicle>
  <vehicle id="veh_217" type="car" depart="1199.6695079320095">
    <route edges=":610445242_0 4588647" />
    </vehicle>
  <vehicle id="veh_218" type="car" depart="1434.4473747073857">
    <route edges="160192389 :cluster_25353323_61091676_3" />
    </vehicle>
  <vehicle id="veh_219" type="car" depart="1342.9341610093359">
    <route edges=":cluster_25353323_61091676_0 :617559628_9" />
    </vehicle>
  <vehicle id="veh_220" type="car" depart="1755.0968046867613">
    <route edges=":617559628_2 :cluster_25353323_61091676_14" />
    </vehicle>
  <vehicle id="veh_221" type="car" depart="1527.0300625621958">
    <route edges="-4588647 :cluster_25353323_61091676_10" />
    </vehicle>
  <vehicle id="veh_222" type="car" depart="1329.897997566337">
    <route edges=":617559628_4 :cluster_25353323_61091676_10" />
    </vehicle>
  <vehicle id="veh_223" type="car" depart="1132.2354477686358">
    <route edges="775437708 1112806233" />
    </vehicle>
  <vehicle id="veh_224" type="car" depart="943.1740529122534">
    <route edges=":610445242_0 :617559628_0" />
    </vehicle>