<?xml version="1.0" ?>
<routes xmlns:xsi="http://www.w3.org/2001/XMLSchema-instance" xsi:noNamespaceSchemaLocation="http://sumo.dlr.de/xsd/routes_file.xsd">
    <vehicle id="veh_0" type="car" depart="10">
        <route edges="4588647 -4588647 -917450542 917450543"/>
    </vehicle>
    <vehicle id="veh_104" type="motorcycle" depart="10">
        <route edges="-917450542 917450543"/>
    </vehicle>
    <vehicle id="veh_1" type="car" depart="20">
        <route edges="4588647 -4588647 160192389"/>
    </vehicle>
    <vehicle id="veh_105" type="motorcycle" depart="20">
        <route edges="136822578 917450542 4588647"/>
    </vehicle>
    <vehicle id="veh_2" type="car" depart="28">
        <route edges="-4588647 160192389"/>
    </vehicle>
    <vehicle id="veh_106" type="motorcycle" depart="34">
        <route edges="136822578 917450542 -917450542"/>
    </vehicle>
    <vehicle id="veh_3" type="car" depart="40">
        <route edges="775437708 917450543"/>
    </vehicle>
    <vehicle id="veh_154" type="truck" depart="48">
        <route edges="136822578 917450542 4588647 -4588647"/>
    </vehicle>
    <vehicle id="veh_4" type="car" depart="51">
        <route edges="775437708 917450543"/>
    </vehicle>
    <vehicle id="veh_107" type="motorcycle" depart="52">
        <route edges="-917450542 1174874706"/>
    </vehicle>
    <vehicle id="veh_5" type="car" depart="58">
        <route edges="1174874706"/>
    </vehicle>
    <vehicle id="jeepney_0" type="traditional_jeepney" depart="59">
        <route edges="1112806233 4588647"/>
    </vehicle>
    <vehicle id="veh_108" type="motorcycle" depart="66">
        <route edges="1112806233 4588647 -4588647"/>
    </vehicle>
    <vehicle id="veh_6" type="car" depart="73">
        <route edges="1174874706"/>
    </vehicle>
    <vehicle id="veh_7" type="car" depart="77">
        <route edges="1112806233 4588647 -4588647"/>
    </vehicle>
    <vehicle id="veh_109" type="motorcycle" depart="84">
        <route edges="1112806233 4588647 -4588647 -917450542 1174874706"/>
    </vehicle>
    <vehicle id="veh_8" type="car" depart="85">
        <route edges="136822578 1174874706"/>
    </vehicle>
    <vehicle id="modernjeepney_0" type="modern_jeepney" depart="91">
        <route edges="1112806233 4588647"/>
    </vehicle>
    <vehicle id="veh_9" type="car" depart="93">
        <route edges="4588647 -4588647 160192389"/>
    </vehicle>
    <vehicle id="veh_110" type="motorcycle" depart="96">
        <route edges="-4588647 -917450542 1174874706"/>
    </vehicle>
    <vehicle id="veh_10" type="car" depart="104">
        <route edges="4588647 -4588647 -917450542"/>
    </vehicle>
    <vehicle id="veh_155" type="truck" depart="105">
        <route edges="1112806233 4588647 -4588647 -917450542 917450543"/>
    </vehicle>
    <vehicle id="veh_11" type="car" depart="106">
        <route edges="1112806233 4588647 -4588647 -917450542"/>
    </vehicle>
    <vehicle id="veh_95" type="bicycle" depart="106">
        <route edges="1112806233 4588647 -4588647 -917450542 917450543"/>
    </vehicle>
    <vehicle id="veh_111" type="motorcycle" depart="107">
        <route edges="1112806233 4588647 -4588647 -917450542 1174874706"/>
    </vehicle>
    <vehicle id="veh_12" type="car" depart="110">
        <route edges="-4588647 160192389"/>
    </vehicle>
    <vehicle id="jeepney_1" type="traditional_jeepney" depart="118">
        <route edges="1112806233 4588647"/>
    </vehicle>
    <vehicle id="veh_13" type="car" depart="122">
        <route edges="1112806233 4588647 -4588647 -917450542 1174874706"/>
    </vehicle>
    <vehicle id="veh_14" type="car" depart="129">
        <route edges="136822578 917450542 -917450542"/>
    </vehicle>
    <vehicle id="veh_112" type="motorcycle" depart="131">
        <route edges="136822578 917450542 4588647 -4588647"/>
    </vehicle>
    <vehicle id="veh_15" type="car" depart="144">
        <route edges="1112806233 4588647 -4588647"/>
    </vehicle>
    <vehicle id="veh_113" type="motorcycle" depart="150">
        <route edges="1174874706"/>
    </vehicle>
    <vehicle id="veh_16" type="car" depart="154">
        <route edges="-917450542 917450542 4588647"/>
    </vehicle>
    <vehicle id="veh_156" type="truck" depart="154">
        <route edges="4588647 -4588647 160192389"/>
    </vehicle>
    <vehicle id="veh_17" type="car" depart="167">
        <route edges="1112806233 4588647 -4588647"/>
    </vehicle>
    <vehicle id="veh_114" type="motorcycle" depart="173">
        <route edges="136822578 1174874706"/>
    </vehicle>
    <vehicle id="jeepney_2" type="traditional_jeepney" depart="173">
        <route edges="-4588647 -917450542 1174874706"/>
    </vehicle>
    <vehicle id="veh_18" type="car" depart="174">
        <route edges="1174874706"/>
    </vehicle>
    <vehicle id="veh_173" type="bus" depart="183">
        <route edges="-4588647 160192389"/>
    </vehicle>
    <vehicle id="veh_19" type="car" depart="184">
        <route edges="136822578 917450542 -917450542"/>
    </vehicle>
    <vehicle id="modernjeepney_1" type="modern_jeepney" depart="188">
        <route edges="1112806233 4588647"/>
    </vehicle>
    <vehicle id="veh_96" type="bicycle" depart="192">
        <route edges="4588647 -4588647"/>
    </vehicle>
    <vehicle id="veh_20" type="car" depart="193">
        <route edges="136822578 1174874706"/>
    </vehicle>
    <vehicle id="veh_115" type="motorcycle" depart="193">
        <route edges="1174874706"/>
    </vehicle>
    <vehicle id="veh_157" type="truck" depart="200">
        <route edges="4588647 -4588647"/>
    </vehicle>
    <vehicle id="veh_21" type="car" depart="202">
        <route edges="-917450542 917450542 4588647"/>
    </vehicle>
    <vehicle id="veh_116" type="motorcycle" depart="205">
        <route edges="1174874706"/>
    </vehicle>
    <vehicle id="veh_22" type="car" depart="212">
        <route edges="136822578 1174874706"/>
    </vehicle>
    <vehicle id="veh_117" type="motorcycle" depart="216">
        <route edges="1112806233 4588647 -4588647 -917450542"/>
    </vehicle>
    <vehicle id="veh_23" type="car" depart="225">
        <route edges="4588647 -4588647 -917450542 1174874706"/>
    </vehicle>
    <vehicle id="veh_24" type="car" depart="235">
        <route edges="-4588647 -917450542"/>
    </vehicle>
    <vehicle id="veh_158" type="truck" depart="237">
        <route edges="4588647 -4588647 -917450542"/>
    </vehicle>
    <vehicle id="veh_118" type="motorcycle" depart="238">
        <route edges="-917450542 917450543"/>
    </vehicle>
    <vehicle id="jeepney_3" type="traditional_jeepney" depart="240">
        <route edges="1112806233 4588647"/>
    </vehicle>
    <vehicle id="veh_25" type="car" depart="246">
        <route edges="4588647 -4588647 -917450542 917450543"/>
    </vehicle>
    <vehicle id="veh_119" type="motorcycle" depart="252">
        <route edges="136822578 917450542 4588647 -4588647"/>
    </vehicle>
    <vehicle id="veh_26" type="car" depart="256">
        <route edges="-917450542 917450542 4588647 -4588647"/>
    </vehicle>
    <vehicle id="veh_27" type="car" depart="261">
        <route edges="136822578 917450543"/>
    </vehicle>
    <vehicle id="veh_28" type="car" depart="270">
        <route edges="-4588647 4588647"/>
    </vehicle>
    <vehicle id="veh_120" type="motorcycle" depart="273">
        <route edges="-917450542 1174874706"/>
    </vehicle>
    <vehicle id="veh_159" type="truck" depart="273">
        <route edges="1112806233 4588647 -4588647 -917450542 917450543"/>
    </vehicle>
    <vehicle id="modernjeepney_2" type="modern_jeepney" depart="277">
        <route edges="-4588647 -917450542 1174874706"/>
    </vehicle>
    <vehicle id="veh_29" type="car" depart="279">
        <route edges="-4588647 160192389"/>
    </vehicle>
    <vehicle id="veh_97" type="bicycle" depart="282">
        <route edges="4588647 -4588647 -917450542"/>
    </vehicle>
    <vehicle id="veh_121" type="motorcycle" depart="284">
        <route edges="-917450542 917450543"/>
    </vehicle>
    <vehicle id="veh_30" type="car" depart="285">
        <route edges="-4588647 -917450542 1174874706"/>
    </vehicle>
    <vehicle id="jeepney_4" type="traditional_jeepney" depart="288">
        <route edges="1112806233 4588647"/>
    </vehicle>
    <vehicle id="veh_31" type="car" depart="299">
        <route edges="136822578 917450543"/>
    </vehicle>
    <vehicle id="veh_122" type="motorcycle" depart="300">
        <route edges="4588647 -4588647 160192389"/>
    </vehicle>
    <vehicle id="veh_32" type="car" depart="308">
        <route edges="1112806233 4588647 -4588647 -917450542"/>
    </vehicle>
    <vehicle id="veh_123" type="motorcycle" depart="312">
        <route edges="-4588647 -917450542 917450543"/>
    </vehicle>
    <vehicle id="veh_160" type="truck" depart="312">
        <route edges="-917450542 1174874706"/>
    </vehicle>
    <vehicle id="veh_33" type="car" depart="319">
        <route edges="136822578 1174874706"/>
    </vehicle>
    <vehicle id="veh_34" type="car" depart="328">
        <route edges="-4588647 -917450542 1174874706"/>
    </vehicle>
    <vehicle id="veh_124" type="motorcycle" depart="330">
        <route edges="1112806233 160192389"/>
    </vehicle>
    <vehicle id="veh_35" type="car" depart="338">
        <route edges="-4588647 -917450542 1174874706"/>
    </vehicle>
    <vehicle id="jeepney_5" type="traditional_jeepney" depart="340">
        <route edges="-4588647 -917450542 1174874706"/>
    </vehicle>
    <vehicle id="veh_125" type="motorcycle" depart="346">
        <route edges="1112806233 4588647 -4588647 -917450542 1174874706"/>
    </vehicle>
    <vehicle id="veh_36" type="car" depart="351">
        <route edges="1112806233 160192389"/>
    </vehicle>
    <vehicle id="veh_126" type="motorcycle" depart="364">
        <route edges="136822578 917450542 -917450542"/>
    </vehicle>
    <vehicle id="veh_37" type="car" depart="366">
        <route edges="136822578 917450542 4588647"/>
    </vehicle>
    <vehicle id="veh_161" type="truck" depart="366">
        <route edges="-4588647 4588647"/>
    </vehicle>
    <vehicle id="modernjeepney_3" type="modern_jeepney" depart="368">
        <route edges="-4588647 -917450542 1174874706"/>
    </vehicle>
    <vehicle id="veh_174" type="bus" depart="370">
        <route edges="136822578 917450543"/>
    </vehicle>
    <vehicle id="veh_38" type="car" depart="376">
        <route edges="136822578 1174874706"/>
    </vehicle>
    <vehicle id="veh_98" type="bicycle" depart="376">
        <route edges="-917450542 1174874706"/>
    </vehicle>
    <vehicle id="veh_39" type="car" depart="384">
        <route edges="-917450542 1174874706"/>
    </vehicle>
    <vehicle id="veh_127" type="motorcycle" depart="388">
        <route edges="-4588647 -917450542 1174874706"/>
    </vehicle>
    <vehicle id="veh_40" type="car" depart="392">
        <route edges="136822578 917450542 4588647 -4588647"/>
    </vehicle>
    <vehicle id="veh_41" type="car" depart="408">
        <route edges="4588647 -4588647 -917450542 917450543"/>
    </vehicle>
    <vehicle id="veh_128" type="motorcycle" depart="411">
        <route edges="1112806233 4588647 -4588647 -917450542"/>
    </vehicle>
    <vehicle id="veh_42" type="car" depart="414">
        <route edges="1112806233 4588647 -4588647 -917450542"/>
    </vehicle>
    <vehicle id="veh_162" type="truck" depart="417">
        <route edges="1112806233 4588647 -4588647 -917450542 917450543"/>
    </vehicle>
    <vehicle id="jeepney_6" type="traditional_jeepney" depart="418">
        <route edges="-4588647 -917450542 1174874706"/>
    </vehicle>
    <vehicle id="veh_43" type="car" depart="422">
        <route edges="1112806233 4588647 -4588647 -917450542 917450543"/>
    </vehicle>
    <vehicle id="veh_129" type="motorcycle" depart="427">
        <route edges="4588647 -4588647 -917450542 1174874706"/>
    </vehicle>
    <vehicle id="veh_44" type="car" depart="433">
        <route edges="4588647 -4588647 -917450542"/>
    </vehicle>
    <vehicle id="veh_130" type="motorcycle" depart="439">
        <route edges="136822578 917450542 -917450542"/>
    </vehicle>
    <vehicle id="veh_45" type="car" depart="443">
        <route edges="-917450542 1174874706"/>
    </vehicle>
    <vehicle id="veh_131" type="motorcycle" depart="452">
        <route edges="4588647 -4588647"/>
    </vehicle>
    <vehicle id="veh_46" type="car" depart="453">
        <route edges="4588647 -4588647 -917450542 1174874706"/>
    </vehicle>
    <vehicle id="modernjeepney_4" type="modern_jeepney" depart="457">
        <route edges="1112806233 4588647"/>
    </vehicle>
    <vehicle id="veh_47" type="car" depart="459">
        <route edges="-917450542 917450542 4588647 -4588647"/>
    </vehicle>
    <vehicle id="veh_132" type="motorcycle" depart="464">
        <route edges="136822578 917450542 4588647 -4588647"/>
    </vehicle>
    <vehicle id="veh_48" type="car" depart="466">
        <route edges="136822578 917450542 160192389"/>
    </vehicle>
    <vehicle id="veh_163" type="truck" depart="471">
        <route edges="-4588647 4588647"/>
    </vehicle>
    <vehicle id="veh_49" type="car" depart="474">
        <route edges="136822578 917450542 4588647 -4588647"/>
    </vehicle>
    <vehicle id="veh_133" type="motorcycle" depart="478">
        <route edges="136822578 917450542 4588647"/>
    </vehicle>
    <vehicle id="veh_99" type="bicycle" depart="480">
        <route edges="1112806233 4588647 -4588647 -917450542 1174874706"/>
    </vehicle>
    <vehicle id="veh_50" type="car" depart="481">
        <route edges="136822578 917450542 4588647 -4588647"/>
    </vehicle>
    <vehicle id="jeepney_7" type="traditional_jeepney" depart="481">
        <route edges="1112806233 4588647"/>
    </vehicle>
    <vehicle id="veh_51" type="car" depart="487">
        <route edges="-4588647 -917450542"/>
    </vehicle>
    <vehicle id="veh_52" type="car" depart="496">
        <route edges="4588647 -4588647"/>
    </vehicle>
    <vehicle id="veh_134" type="motorcycle" depart="498">
        <route edges="-4588647 160192389"/>
    </vehicle>
    <vehicle id="veh_53" type="car" depart="507">
        <route edges="-917450542 917450542 4588647"/>
    </vehicle>
    <vehicle id="veh_54" type="car" depart="516">
        <route edges="1174874706"/>
    </vehicle>
    <vehicle id="veh_164" type="truck" depart="517">
        <route edges="1174874706"/>
    </vehicle>
    <vehicle id="veh_135" type="motorcycle" depart="518">
        <route edges="-4588647 160192389"/>
    </vehicle>
    <vehicle id="veh_55" type="car" depart="525">
        <route edges="-4588647 -917450542 1174874706"/>
    </vehicle>
    <vehicle id="veh_136" type="motorcycle" depart="534">
        <route edges="4588647 -4588647 -917450542 1174874706"/>
    </vehicle>
    <vehicle id="veh_175" type="bus" depart="535">
        <route edges="4588647 -4588647 -917450542"/>
    </vehicle>
    <vehicle id="veh_56" type="car" depart="536">
        <route edges="4588647 -4588647 -917450542"/>
    </vehicle>
    <vehicle id="jeepney_8" type="traditional_jeepney" depart="542">
        <route edges="-4588647 -917450542 1174874706"/>
    </vehicle>
    <vehicle id="modernjeepney_5" type="modern_jeepney" depart="542">
        <route edges="1112806233 4588647"/>
    </vehicle>
    <vehicle id="veh_57" type="car" depart="548">
        <route edges="-917450542 917450542 4588647"/>
    </vehicle>
    <vehicle id="veh_58" type="car" depart="557">
        <route edges="136822578 1174874706"/>
    </vehicle>
    <vehicle id="veh_137" type="motorcycle" depart="557">
        <route edges="136822578 917450542 4588647"/>
    </vehicle>
    <vehicle id="veh_59" type="car" depart="563">
        <route edges="4588647 -4588647 -917450542 1174874706"/>
    </vehicle>
    <vehicle id="veh_165" type="truck" depart="567">
        <route edges="1174874706"/>
    </vehicle>
    <vehicle id="veh_60" type="car" depart="572">
        <route edges="1174874706"/>
    </vehicle>
    <vehicle id="veh_100" type="bicycle" depart="572">
        <route edges="136822578 917450542 160192389"/>
    </vehicle>
    <vehicle id="veh_138" type="motorcycle" depart="577">
        <route edges="-4588647 -917450542 917450543"/>
    </vehicle>
    <vehicle id="veh_61" type="car" depart="582">
        <route edges="4588647 -4588647 160192389"/>
    </vehicle>
    <vehicle id="veh_139" type="motorcycle" depart="589">
        <route edges="1174874706"/>
    </vehicle>
    <vehicle id="veh_62" type="car" depart="590">
        <route edges="1174874706"/>
    </vehicle>
    <vehicle id="veh_63" type="car" depart="603">
        <route edges="1174874706"/>
    </vehicle>
    <vehicle id="jeepney_9" type="traditional_jeepney" depart="605">
        <route edges="-4588647 -917450542 1174874706"/>
    </vehicle>
    <vehicle id="veh_166" type="truck" depart="610">
        <route edges="-917450542 917450542 4588647 -4588647"/>
    </vehicle>
    <vehicle id="veh_140" type="motorcycle" depart="611">
        <route edges="-917450542 1174874706"/>
    </vehicle>
    <vehicle id="veh_64" type="car" depart="613">
        <route edges="-4588647 4588647"/>
    </vehicle>
    <vehicle id="veh_65" type="car" depart="621">
        <route edges="1112806233 4588647 -4588647 -917450542 917450543"/>
    </vehicle>
    <vehicle id="veh_141" type="motorcycle" depart="631">
        <route edges="775437708 917450543"/>
    </vehicle>
    <vehicle id="modernjeepney_6" type="modern_jeepney" depart="633">
        <route edges="-4588647 -917450542 1174874706"/>
    </vehicle>
    <vehicle id="veh_66" type="car" depart="634">
        <route edges="136822578 1174874706"/>
    </vehicle>
    <vehicle id="veh_67" type="car" depart="645">
        <route edges="136822578 1174874706"/>
    </vehicle>
    <vehicle id="veh_167" type="truck" depart="645">
        <route edges="4588647 -4588647 -917450542 917450543"/>
    </vehicle>
    <vehicle id="veh_142" type="motorcycle" depart="650">
        <route edges="4588647 -4588647 160192389"/>
    </vehicle>
    <vehicle id="jeepney_10" type="traditional_jeepney" depart="662">
        <route edges="-4588647 -917450542 1174874706"/>
    </vehicle>
    <vehicle id="veh_68" type="car" depart="663">
        <route edges="775437708 917450543"/>
    </vehicle>
    <vehicle id="veh_143" type="motorcycle" depart="665">
        <route edges="136822578 1174874706"/>
    </vehicle>
    <vehicle id="veh_101" type="bicycle" depart="671">
        <route edges="-4588647 -917450542"/>
    </vehicle>
    <vehicle id="veh_69" type="car" depart="679">
        <route edges="775437708 917450543"/>
    </vehicle>
    <vehicle id="veh_144" type="motorcycle" depart="687">
        <route edges="4588647 -4588647 160192389"/>
    </vehicle>
    <vehicle id="veh_70" type="car" depart="688">
        <route edges="4588647 -4588647"/>
    </vehicle>
    <vehicle id="veh_168" type="truck" depart="693">
        <route edges="1112806233 4588647 -4588647 -917450542"/>
    </vehicle>
    <vehicle id="veh_71" type="car" depart="694">
        <route edges="136822578 917450543"/>
    </vehicle>
    <vehicle id="veh_72" type="car" depart="700">
        <route edges="136822578 1174874706"/>
    </vehicle>
    <vehicle id="veh_73" type="car" depart="705">
        <route edges="136822578 917450543"/>
    </vehicle>
    <vehicle id="veh_145" type="motorcycle" depart="705">
        <route edges="1112806233 4588647 -4588647 -917450542 1174874706"/>
    </vehicle>
    <vehicle id="modernjeepney_7" type="modern_jeepney" depart="705">
        <route edges="1112806233 4588647"/>
    </vehicle>
    <vehicle id="veh_176" type="bus" depart="709">
        <route edges="-4588647 160192389"/>
    </vehicle>
    <vehicle id="veh_74" type="car" depart="712">
        <route edges="-4588647 -917450542"/>
    </vehicle>
    <vehicle id="veh_75" type="car" depart="718">
        <route edges="136822578 917450542 4588647 -4588647"/>
    </vehicle>
    <vehicle id="veh_76" type="car" depart="724">
        <route edges="1112806233 4588647 -4588647 -917450542"/>
    </vehicle>
    <vehicle id="veh_146" type="motorcycle" depart="726">
        <route edges="1112806233 4588647 -4588647 -917450542 917450543"/>
    </vehicle>
    <vehicle id="jeepney_11" type="traditional_jeepney" depart="726">
        <route edges="1112806233 4588647"/>
    </vehicle>
    <vehicle id="veh_77" type="car" depart="732">
        <route edges="1112806233 4588647 -4588647 -917450542 1174874706"/>
    </vehicle>
    <vehicle id="veh_78" type="car" depart="742">
        <route edges="-4588647 -917450542 1174874706"/>
    </vehicle>
    <vehicle id="veh_147" type="motorcycle" depart="744">
        <route edges="136822578 917450543"/>
    </vehicle>
    <vehicle id="veh_169" type="truck" depart="745">
        <route edges="1174874706"/>
    </vehicle>
    <vehicle id="veh_79" type="car" depart="755">
        <route edges="-917450542 917450543"/>
    </vehicle>
    <vehicle id="veh_80" type="car" depart="760">
        <route edges="-4588647 -917450542"/>
    </vehicle>
    <vehicle id="veh_102" type="bicycle" depart="765">
        <route edges="136822578 917450543"/>
    </vehicle>
    <vehicle id="veh_148" type="motorcycle" depart="770">
        <route edges="-917450542 1174874706"/>
    </vehicle>
    <vehicle id="veh_81" type="car" depart="771">
        <route edges="136822578 917450542 4588647 -4588647"/>
    </vehicle>
    <vehicle id="veh_82" type="car" depart="780">
        <route edges="4588647 -4588647 -917450542 1174874706"/>
    </vehicle>
    <vehicle id="veh_170" type="truck" depart="783">
        <route edges="1112806233 4588647 -4588647 -917450542"/>
    </vehicle>
    <vehicle id="veh_149" type="motorcycle" depart="786">
        <route edges="-917450542 917450542 160192389"/>
    </vehicle>
    <vehicle id="modernjeepney_8" type="modern_jeepney" depart="786">
        <route edges="1112806233 4588647"/>
    </vehicle>
    <vehicle id="veh_83" type="car" depart="789">
        <route edges="4588647 -4588647 160192389"/>
    </vehicle>
    <vehicle id="veh_84" type="car" depart="797">
        <route edges="4588647 -4588647 -917450542"/>
    </vehicle>
    <vehicle id="jeepney_12" type="traditional_jeepney" depart="797">
        <route edges="1112806233 4588647"/>
    </vehicle>
    <vehicle id="veh_150" type="motorcycle" depart="802">
        <route edges="-917450542 917450542 4588647"/>
    </vehicle>
    <vehicle id="veh_85" type="car" depart="808">
        <route edges="1112806233 4588647 -4588647 -917450542 1174874706"/>
    </vehicle>
    <vehicle id="veh_86" type="car" depart="816">
        <route edges="1112806233 4588647 -4588647 -917450542 1174874706"/>
    </vehicle>
    <vehicle id="veh_151" type="motorcycle" depart="817">
        <route edges="4588647 -4588647 -917450542 1174874706"/>
    </vehicle>
    <vehicle id="veh_87" type="car" depart="823">
        <route edges="-4588647 4588647"/>
    </vehicle>
    <vehicle id="veh_171" type="truck" depart="831">
        <route edges="-4588647 -917450542 917450543"/>
    </vehicle>
    <vehicle id="veh_88" type="car" depart="834">
        <route edges="136822578 1174874706"/>
    </vehicle>
    <vehicle id="veh_152" type="motorcycle" depart="835">
        <route edges="1112806233 4588647 -4588647 -917450542 1174874706"/>
    </vehicle>
    <vehicle id="veh_89" type="car" depart="841">
        <route edges="1112806233 4588647 -4588647 -917450542 1174874706"/>
    </vehicle>
    <vehicle id="veh_90" type="car" depart="847">
        <route edges="136822578 1174874706"/>
    </vehicle>
    <vehicle id="jeepney_13" type="traditional_jeepney" depart="847">
        <route edges="1112806233 4588647"/>
    </vehicle>
    <vehicle id="veh_103" type="bicycle" depart="850">
        <route edges="-917450542 917450543"/>
    </vehicle>
    <vehicle id="veh_153" type="motorcycle" depart="851">
        <route edges="1112806233 4588647 -4588647 -917450542 917450543"/>
    </vehicle>
    <vehicle id="veh_91" type="car" depart="862">
        <route edges="4588647 -4588647 -917450542 917450543"/>
    </vehicle>
    <vehicle id="veh_92" type="car" depart="872">
        <route edges="4588647 -4588647 -917450542 1174874706"/>
    </vehicle>
    <vehicle id="modernjeepney_9" type="modern_jeepney" depart="872">
        <route edges="1112806233 4588647"/>
    </vehicle>
    <vehicle id="veh_172" type="truck" depart="879">
        <route edges="1112806233 4588647"/>
    </vehicle>
    <vehicle id="veh_93" type="car" depart="882">
        <route edges="136822578 917450543"/>
    </vehicle>
    <vehicle id="veh_177" type="bus" depart="883">
        <route edges="-4588647 4588647"/>
    </vehicle>
    <vehicle id="veh_94" type="car" depart="889">
        <route edges="1112806233 4588647 -4588647 -917450542 1174874706"/>
    </vehicle>
    <vehicle id="veh_202" type="car" depart="908">
        <route edges="1112806233 4588647 -4588647 -917450542 1174874706"/>
    </vehicle>
    <vehicle id="veh_287" type="motorcycle" depart="922">
        <route edges="4588647 -4588647 -917450542"/>
    </vehicle>
    <vehicle id="veh_203" type="car" depart="927">
        <route edges="1112806233 4588647 -4588647 -917450542"/>
    </vehicle>
    <vehicle id="veh_204" type="car" depart="939">
        <route edges="136822578 1174874706"/>
    </vehicle>
    <vehicle id="veh_288" type="motorcycle" depart="944">
        <route edges="-4588647 -917450542 917450543"/>
    </vehicle>
    <vehicle id="veh_205" type="car" depart="956">
        <route edges="136822578 917450542 4588647 -4588647"/>
    </vehicle>
    <vehicle id="veh_206" type="car" depart="961">
        <route edges="136822578 917450542 160192389"/>
    </vehicle>
    <vehicle id="veh_207" type="car" depart="969">
        <route edges="1112806233 160192389"/>
    </vehicle>
    <vehicle id="veh_289" type="motorcycle" depart="971">
        <route edges="4588647 -4588647 -917450542 1174874706"/>
    </vehicle>
    <vehicle id="veh_327" type="truck" depart="972">
        <route edges="1112806233 4588647"/>
    </vehicle>
    <vehicle id="jeepney_14" type="traditional_jeepney" depart="972">
        <route edges="1112806233 4588647"/>
    </vehicle>
    <vehicle id="modernjeepney_10" type="modern_jeepney" depart="981">
        <route edges="1112806233 4588647"/>
    </vehicle>
    <vehicle id="veh_208" type="car" depart="983">
        <route edges="4588647 -4588647 160192389"/>
    </vehicle>
    <vehicle id="veh_209" type="car" depart="999">
        <route edges="136822578 1174874706"/>
    </vehicle>
    <vehicle id="veh_290" type="motorcycle" depart="1005">
        <route edges="-4588647 -917450542"/>
    </vehicle>
    <vehicle id="veh_210" type="car" depart="1010">
        <route edges="4588647 -4588647"/>
    </vehicle>
    <vehicle id="veh_211" type="car" depart="1025">
        <route edges="-917450542 1174874706"/>
    </vehicle>
    <vehicle id="veh_212" type="car" depart="1031">
        <route edges="-917450542 917450543"/>
    </vehicle>
    <vehicle id="veh_328" type="truck" depart="1031">
        <route edges="1112806233 160192389"/>
    </vehicle>
    <vehicle id="veh_279" type="bicycle" depart="1032">
        <route edges="-4588647 -917450542"/>
    </vehicle>
    <vehicle id="veh_291" type="motorcycle" depart="1032">
        <route edges="775437708 917450543"/>
    </vehicle>
    <vehicle id="jeepney_15" type="traditional_jeepney" depart="1035">
        <route edges="1112806233 4588647"/>
    </vehicle>
    <vehicle id="veh_213" type="car" depart="1042">
        <route edges="-917450542 917450542 4588647"/>
    </vehicle>
    <vehicle id="veh_292" type="motorcycle" depart="1044">
        <route edges="4588647 -4588647 -917450542"/>
    </vehicle>
    <vehicle id="veh_214" type="car" depart="1050">
        <route edges="775437708 917450543"/>
    </vehicle>
    <vehicle id="veh_215" type="car" depart="1062">
        <route edges="775437708 917450543"/>
    </vehicle>
    <vehicle id="veh_293" type="motorcycle" depart="1066">
        <route edges="136822578 1174874706"/>
    </vehicle>
    <vehicle id="veh_216" type="car" depart="1074">
        <route edges="136822578 917450542 -917450542"/>
    </vehicle>
    <vehicle id="veh_217" type="car" depart="1080">
        <route edges="136822578 1174874706"/>
    </vehicle>
    <vehicle id="veh_329" type="truck" depart="1080">
        <route edges="-917450542 917450542 4588647 -4588647"/>
    </vehicle>
    <vehicle id="veh_294" type="motorcycle" depart="1085">
        <route edges="1112806233 4588647 -4588647 -917450542 1174874706"/>
    </vehicle>
    <vehicle id="veh_218" type="car" depart="1088">
        <route edges="4588647 -4588647 -917450542"/>
    </vehicle>
    <vehicle id="veh_341" type="bus" depart="1092">
        <route edges="-917450542 917450542 4588647"/>
    </vehicle>
    <vehicle id="modernjeepney_11" type="modern_jeepney" depart="1094">
        <route edges="1112806233 4588647"/>
    </vehicle>
    <vehicle id="veh_219" type="car" depart="1101">
        <route edges="1112806233 160192389"/>
    </vehicle>
    <vehicle id="veh_295" type="motorcycle" depart="1107">
        <route edges="-917450542 917450543"/>
    </vehicle>
    <vehicle id="veh_220" type="car" depart="1118">
        <route edges="-917450542 917450543"/>
    </vehicle>
    <vehicle id="veh_221" type="car" depart="1126">
        <route edges="1112806233 160192389"/>
    </vehicle>
    <vehicle id="jeepney_16" type="traditional_jeepney" depart="1134">
        <route edges="1112806233 4588647"/>
    </vehicle>
    <vehicle id="veh_296" type="motorcycle" depart="1137">
        <route edges="-4588647 4588647"/>
    </vehicle>
    <vehicle id="veh_222" type="car" depart="1139">
        <route edges="136822578 917450542 -917450542"/>
    </vehicle>
    <vehicle id="veh_280" type="bicycle" depart="1141">
        <route edges="1112806233 4588647 -4588647"/>
    </vehicle>