<?xml version='1.0' encoding='utf-8'?>
<routes xmlns:xsi="http://www.w3.org/2001/XMLSchema-instance" xsi:noNamespaceSchemaLocation="http://sumo.dlr.de/xsd/routes_file.xsd">
    <vType id="bicycle" length="2.00" minGap="1.50" maxSpeed="15.00" color="cyan" accel="1.5" decel="3.0" sigma="0.5" />
    <vehicle id="bicycle1_bicycle1_0" type="bicycle" depart="0.00">
        <route edges="23784738#2 99810162#0 99810162#1 -124013054#1 -124013054#0 -9793977 32775590#0 32775590#1 32775590#2 32775594 8598616#0 8598616#1 921169755#0 921169755#1 1074882021 4970340#0 4970340#1 10853062#0 10853062#1 10853062#2 10853062#3 -10853062#3" />
    </vehicle>
    <vehicle id="bicycle1_bicycle1_1" type="bicycle" depart="360.00">
        <route edges="-548314354 799533711#1 23296573#0 23296573#1 23296573#2 23296573#3 23296573#4 799533712#0 799533712#1 799533712#2 799533699 900703372 23296568 799533698 -643170217#3 -643170217#1 -643170217#0 -643170216#2 -643170216#0 643170215#0 643170215#1 801449565 917970208 24516690 4243613 30678855#0 30678855#1 30678855#2 1090956392#0 1090956392#1 729164042#1 805198994#0 805198994#1 420657996 -27087407#2 -27087407#1 -189980442#4 -189980442#3 -189980442#2 -189980442#1 -189980442#0 -24158218#3 -24158218#2 -24158218#1 -24158218#0 -24164989#0 694630249 923260349 176633481 191549817 -368461882#2 -368461882#1 -368461882#0 -615478344#1 -615478344#0 -615478345 -615456193#2 -615456193#1 -615456193#0 154644778#0 154644778#1 -924607337#4 -924607337#3 -924607337#2 -924607337#1 -924607337#0 -924607338 -303412427#19 -303412427#18 -303412427#17 -303412427#16 -303412427#15 -303412427#14 -303412427#13 -303412427#12 -303412427#11 -303412427#10 -303412427#9 -303412427#8 -303412427#7 -303412427#6 -303412427#5 -303412427#4 -303412427#3 -303412427#2 -303412427#1 -303412427#0 -29377703#4 -29377703#3" />
    </vehicle>
    <vehicle id="bicycle1_bicycle1_2" type="bicycle" depart="720.00">
        <route edges="332100657#6 332100657#7 404567102 840031279#0 840031279#1 404567111#0 404567111#1 154837038#0 154837038#1 154837038#2 154837038#3 154837038#4 154837038#5 5055419#0 5055419#1 5055419#2 5055419#3 5055419#4 5055419#6 5055419#7 5055419#8 29397239 -379389868#10 -379389868#8 -379389868#7 -379389868#6 -379389868#5 -379389868#4 -379389868#3 933289326#0 643162726#0 643162726#1 643162726#2 643160796#0 643160796#1 643160796#2 27323187#0 27323187#1 27323187#2 27323187#3" />
    </vehicle>
    <vehicle id="bicycle1_bicycle1_5" type="bicycle" depart="1560.00">
        <route edges="-29169513#1 -29169513#0 -612314866#1 -612314866#0 -71942401#6 -71942401#5 -71942401#4 -71942401#3 -71942401#2 -71942401#1 -71942401#0 154644765 71380492#0 71380492#1 -15834230 615456195 615456193#0 615456193#1 615456193#2 615478345 615478344#0 615478344#1 368461882#0 368461882#1 368461882#2 694268908 923261416 694268909#0 694268909#1 1176045778 82694445#0 82694445#1 82694445#2 1176045777 82694458#0 82694458#1 575729552#0 575729552#1 4086429 4332731 745183365#0 -575729108#4 -575729108#3 -575729108#2 -575729108#1 -575729555 -940627086 -4332734#7 -4332734#6 -4332734#5 -4332734#4 -4332734#3 -4332734#2 -4332734#1 -4332734#0 -4478182 -48630242#3 -48630242#2 -48630242#1 4243614#1 685156794#0 685156794#1 706706674#0 820063579#0 820063579#1 107396681#0 107396681#4 107396681#5 107396681#6 107396681#7 1148489399#0 1148489399#1 1148489399#2 1018627463 -1076442002 -4588647#5 -4588647#4 -4588647#3 -4588647#0 -917450542 1174874706 1182394700 136822582 1174874705 161754856 917450546#0 917450546#2 4637649 1158575268 1156612124 161754854#0 161754854#1 161754854#2 136822571#1 136822571#2 136822571#3 136822574 136822584 369686026 118783737 1035321071#0 1035321071#1 1035321071#2 1035321071#3 1035321071#4 118783734#2 799741450 1068364362 421767353#0 421767353#1 421767353#2 421767353#3 421767353#4 421767353#5 421767353#6 421767353#7 160192353 921182983 22694404 4491076 9867481 840031280#0 840031280#1 1066216976 -137055696#27 -137055696#25 -137055696#24 -137055696#23 -137055696#22 -137055696#21 -137055696#20 1066216972 1067927152 -137055699#5 -137055699#4 -137055699#3 -137055699#2 137055699#2 137055699#3" />
    </vehicle>
    <vehicle id="bicycle1_bicycle1_6" type="bicycle" depart="1920.00">
        <route edges="-10853062#2 -10853062#1 -10853062#0 4970340#2 1035321070#0 1035321070#1 1035321070#2 1077747773 136822578 917450542 4588647#0 4588647#3 4588647#4 4588647#5 1076442002 1018627464 4258656#0 4258656#1 4258656#2 4258656#4 4588648#0 4588648#1 4588648#2 4588648#3 643170764#1 1090956393 643170762 688065628 909631590 4638433 24516683#0 24516683#1 379389863 729955635 379389862 38608554#0 27276538#0 27276538#1 27276538#3 27276538#4 27276538#5 27276538#6 27276538#7 27276538#8 -27276538#8 -27276538#7 -27276538#6 -27276538#5" />
    </vehicle>
    <vehicle id="bicycle1_bicycle1_7" type="bicycle" depart="2280.00">
        <route edges="24164733 24159188#1 -24164989#1 -24164989#0 694630249 923260349 176633481 191549817 -368461882#2 -368461882#1 -368461882#0 -615478344#1 -615478344#0 -615478345 -615456193#2 -615456193#1 -615456193#0 154644778#0 154644778#1 -924607337#4 -924607337#3 -924607337#2 -924607337#1 -924607337#0 -924607338 -303412427#19 -303412427#18 -303412427#17 -303412427#16 -303412427#15 -303412427#14 -303412427#13 -303412427#12 -303412427#11 -303412427#10 -303412427#9 -303412427#8 -303412427#7 -303412427#6 -303412427#5 -303412427#4 15785456#0 15785466" />
    </vehicle>
    <vehicle id="bicycle1_bicycle1_8" type="bicycle" depart="2400.00">
        <route edges="-29170628#0 -29170624#1 29170622#1 29170622#2 176435844#4 176435844#5 176435844#6" />
    </vehicle>
    <vehicle id="bicycle1_bicycle1_9" type="bicycle" depart="2760.00">
        <route edges="592221046#1 131714153 131714155#0 -131714155#0 -131714153 -592221046#1 -592221046#0 1074911328 -22751304#1 -28788664#2 -28788664#1 -28788664#0 -38426188 -126342420#4 -126342420#3 184031600 421767353#0 421767353#1 421767353#2 421767353#3 421767353#4 421767353#5 421767353#6 421767353#7 160192353 921182983 22694404 4491076 9867481 -32505399#5 -32505399#4 -32505399#3 -32505399#2 -32505399#0 -32505401 -820063559#1 -820063559#0 -820063534#2 -820063534#1 -820063534#0 -27323189#4 -27323189#3 -27323189#2 -27323189#1 -27276449#4 -27276449#3 -27276449#2 -27276449#1 -643170217#9 -643170217#8 -643170217#7 -643170217#6 -643170217#5 -643170217#4 -643170217#3 -643170217#1 -643170217#0 -643170216#2 -643170216#0 -1123244160#2 -879147767 692701686#0 692701686#1 692701686#2 692701686#3 692701686#4 879147761#0 879147761#1 879147761#2 879147761#3 -879147763#1 -879147763#0 -1123244161#1 -1123244161#0 -1067761767#2" />
    </vehicle>
    <vehicle id="bicycle1_bicycle1_10" type="bicycle" depart="3120.00">
        <route edges="575729108#3 575729108#4 745183363 745183362 745183364#0 745183364#1 745183364#2 -82694458#1 -82694458#0 -1176045777 -82694445#2 -82694445#1 -82694445#0 -1176045778 -694268909#1 -694268909#0 -923261416 -694268908 -368461882#2 -368461882#1 -368461882#0 -615478344#1 -615478344#0 -615478345 -615456193#2 -615456193#1 -615456193#0 154644778#0 154644778#1 15834230 71942407 694661265 71942401#0 71942401#1 71942401#2 71942401#3 71942401#4 71942401#5 71942401#6 612314866#0 612314866#1 29169513#0 557274288 29169543#0 29169543#1 -29169543#1 29169527#0" />
    </vehicle>
    <vehicle id="bicycle1_bicycle1_11" type="bicycle" depart="3480.00">
        <route edges="-8598773#3 -8598773#2 -8598773#1 -8598773#0 575729552#0 575729552#1 4086429 4332731 745183365#0 -575729108#4 -575729108#3 -575729108#2 -575729108#1 -575729555 -940627086 -4332734#7 -4332734#6 -4332734#5 -4332734#4 -4332734#3 -4332734#2 -4332734#1 -4332734#0 -4478182 -48630242#3 -48630242#2 -48630242#1 4243614#1 685156794#0 685156794#1 706706674#0 820063579#0 820063579#1 107396681#0 107396681#4 107396681#5 107396681#6 107396681#7 1148489399#0 1148489399#1 1148489399#2 1018627463 -1076442002 -4588647#5 -4588647#4 -4588647#3 -4588647#0 -917450542 1174874706 1182394700 136822582 1174874705 161754856 917450546#0 917450546#2 4637649 1158575268 1156612124 161754854#0 161754854#1 161754854#2 136822571#1 136822571#2 136822571#3 136822574 136822584 369686026 121188635 332624272 126342419 757990549 1074607189#0 1074607189#1 119883577#1 119883577#4 119883577#5 119883577#6 119883577#7 119883577#8 119883577#9 119883577#10 5019952#0 5019952#1 5019952#2 5019952#4 5019952#5 825090426 704746733#0 -22751222#1" />
    </vehicle>
</routes>