<?xml version='1.0' encoding='utf-8'?>
<routes xmlns:xsi="http://www.w3.org/2001/XMLSchema-instance" xsi:noNamespaceSchemaLocation="http://sumo.dlr.de/xsd/routes_file.xsd">
    <vType id="bicycle" length="2.00" minGap="1.50" maxSpeed="15.00" color="cyan" accel="1.5" decel="3.0" sigma="0.5" />
    <vehicle id="bicycle_0" type="bicycle" depart="0.00">
        <route edges="23784738#2 99810162#0 99810162#1 -124013054#1 -124013054#0 -9793977 32775590#0 32775590#1 32775590#2 32775594 8598616#0 8598616#1 921169755#0 921169755#1 1074882021 4970340#0 4970340#1 10853062#0 10853062#1 10853062#2 10853062#3 -10853062#3" />
    </vehicle>
    <vehicle id="bicycle_1" type="bicycle" depart="180.00">
        <route edges="-548314354 799533711#1 23296573#0 23296573#1 23296573#2 23296573#3 23296573#4 799533712#0 799533712#1 799533712#2 799533699 900703372 23296568 799533698 -643170217#3 -643170217#1 -643170217#0 -643170216#2 -643170216#0 643170215#0 643170215#1 801449565 917970208 24516690 4243613 30678855#0 30678855#1 30678855#2 1090956392#0 1090956392#1 729164042#1 805198994#0 805198994#1 420657996 -27087407#2 -27087407#1 -189980442#4 -189980442#3 -189980442#2 -189980442#1 -189980442#0 -24158218#3 -24158218#2 -24158218#1 -24158218#0 -24164989#0 694630249 923260349 176633481 191549817 -368461882#2 -368461882#1 -368461882#0 -615478344#1 -615478344#0 -615478345 -615456193#2 -615456193#1 -615456193#0 154644778#0 154644778#1 -924607337#4 -924607337#3 -924607337#2 -924607337#1 -924607337#0 -924607338 -303412427#19 -303412427#18 -303412427#17 -303412427#16 -303412427#15 -303412427#14 -303412427#13 -303412427#12 -303412427#11 -303412427#10 -303412427#9 -303412427#8 -303412427#7 -303412427#6 -303412427#5 -303412427#4 -303412427#3 -303412427#2 -303412427#1 -303412427#0 -29377703#4 -29377703#3" />
    </vehicle>
    <vehicle id="bicycle_2" type="bicycle" depart="360.00">
        <route edges="332100657#6 332100657#7 404567102 840031279#0 840031279#1 404567111#0 404567111#1 657655984#0 657655984#1 657655984#2 657655984#3 657655984#4 18754937 840031281 137055695 404567018 137055696#0 137055696#1 137055696#2 137055696#4 137055696#5 137055696#6 137055696#8 137055696#9 137055696#13 -28755948 27323202#0 27323202#1 27323202#2 902587813#0 902587813#1 146694555#7 643157902 643157903#0 643157903#1 643157903#2 638325459 643160796#0 643160796#1 643160796#2 27323187#0 27323187#1 27323187#2 27323187#3" />
    </vehicle>
    <vehicle id="bicycle_5" type="bicycle" depart="900.00">
        <route edges="-29169513#1 -29169513#0 -612314866#1 -612314866#0 -71942401#6 -71942401#5 -71942401#4 -71942401#3 -71942401#2 -71942401#1 -71942401#0 154644765 71380492#0 71380492#1 -15834230 615456195 615456193#0 615456193#1 615456193#2 615478345 615478344#0 615478344#1 368461882#0 368461882#1 368461882#2 694268908 923261416 694268909#0 694268909#1 1176045778 82694445#0 82694445#1 82694445#2 1176045777 82694458#0 82694458#1 575729552#0 575729552#1 4086429 4332731 745183365#0 -575729108#4 -575729108#3 -575729108#2 -575729108#1 -575729555 -940627086 -4332734#7 -4332734#6 -4332734#5 -4332734#4 -4332734#3 -4332734#2 -4332734#1 -4332734#0 -4478182 -48630242#3 -48630242#2 -48630242#1 4243614#1 685156794#0 685156794#1 706706674#0 820063579#0 820063579#1 107396681#0 107396681#4 107396681#5 107396681#6 107396681#7 1148489399#0 1148489399#1 1148489399#2 1018627463 -1076442002 -4588647#5 -4588647#4 -4588647#3 -4588647#0 -917450542 1174874706 1182394700 136822582 1174874705 161754856 917450546#0 917450546#2 4637649 1158575268 1156612124 161754854#0 161754854#1 161754854#2 136822571#1 136822571#2 136822571#3 136822574 136822584 369686026 118783737 1035321071#0 1035321071#1 1035321071#2 1035321071#3 1035321071#4 118783734#2 799741450 1068364362 421767353#0 421767353#1 421767353#2 421767353#3 421767353#4 421767353#5 421767353#6 421767353#7 160192353 921182983 22694404 4491076 9867481 840031280#0 840031280#1 1066216976 -137055696#27 -137055696#25 -137055696#24 -137055696#23 -137055696#22 -137055696#21 -137055696#20 1066216972 1067927152 -137055699#5 -137055699#4 -137055699#3 -137055699#2 137055699#2 137055699#3" />
    </vehicle>
    <vehicle id="bicycle_6" type="bicycle" depart="1080.00">
        <route edges="-10853062#2 -10853062#1 -10853062#0 4970340#2 1035321070#0 1035321070#1 1035321070#2 1077747773 136822578 917450542 4588647#0 4588647#3 4588647#4 4588647#5 1076442002 1018627464 4258656#0 4258656#1 4258656#2 4258656#4 4588648#0 4588648#1 4588648#2 4588648#3 643170764#1 1090956393 643170762 688065628 909631590 4638433 24516683#0 24516683#1 379389863 729955635 379389862 38608554#0 27276538#0 27276538#1 27276538#3 27276538#4 27276538#5 27276538#6 27276538#7 27276538#8 -27276538#8 -27276538#7 -27276538#6 -27276538#5" />
    </vehicle>
    <vehicle id="bicycle_7" type="bicycle" depart="1260.00">
        <route edges="24164733 24159188#1 -24164989#1 -24164989#0 694630249 923260349 176633481 191549817 -368461882#2 -368461882#1 -368461882#0 -615478344#1 -615478344#0 -615478345 -615456193#2 -615456193#1 -615456193#0 154644778#0 154644778#1 -924607337#4 -924607337#3 -924607337#2 -924607337#1 -924607337#0 -924607338 -303412427#19 -303412427#18 -303412427#17 -303412427#16 -303412427#15 -303412427#14 -303412427#13 -303412427#12 -303412427#11 -303412427#10 -303412427#9 -303412427#8 -303412427#7 -303412427#6 -303412427#5 -303412427#4 15785456#0 15785466" />
    </vehicle>
    <vehicle id="bicycle_8" type="bicycle" depart="1440.00">
        <route edges="-29170628#0 -29170624#1 29170622#1 29170622#2 176435844#4 176435844#5 176435844#6" />
    </vehicle>
    <vehicle id="bicycle_9" type="bicycle" depart="1620.00">
        <route edges="592221046#1 131714153 131714155#0 -131714155#0 -131714153 -592221046#1 -592221046#0 1074911328 -22751304#1 -28788664#2 -28788664#1 -28788664#0 -38426188 -126342420#4 -126342420#3 184031600 421767353#0 421767353#1 421767353#2 421767353#3 421767353#4 421767353#5 421767353#6 421767353#7 160192353 921182983 22694404 4491076 9867481 -32505399#5 -32505399#4 -32505399#3 -32505399#2 -32505399#0 -32505401 -820063559#1 -820063559#0 -820063534#2 -820063534#1 -820063534#0 -27323189#4 -27323189#3 -27323189#2 -27323189#1 -27276449#4 -27276449#3 -27276449#2 -27276449#1 -643170217#9 -643170217#8 -643170217#7 -643170217#6 -643170217#5 -643170217#4 -643170217#3 -643170217#1 -643170217#0 -643170216#2 -643170216#0 -1123244160#2 -879147767 692701686#0 692701686#1 692701686#2 692701686#3 692701686#4 879147761#0 879147761#1 879147761#2 879147761#3 -879147763#1 -879147763#0 -1123244161#1 -1123244161#0 -1067761767#2" />
    </vehicle>
    <vehicle id="bicycle_10" type="bicycle" depart="1800.00">
        <route edges="575729108#3 575729108#4 745183363 745183362 745183364#0 745183364#1 745183364#2 -82694458#1 -82694458#0 -1176045777 -82694445#2 -82694445#1 -82694445#0 -1176045778 -694268909#1 -694268909#0 -923261416 -694268908 -368461882#2 -368461882#1 -368461882#0 -615478344#1 -615478344#0 -615478345 -615456193#2 -615456193#1 -615456193#0 154644778#0 154644778#1 15834230 71942407 694661265 71942401#0 71942401#1 71942401#2 71942401#3 71942401#4 71942401#5 71942401#6 612314866#0 612314866#1 29169513#0 557274288 29169543#0 29169543#1 -29169543#1 29169527#0" />
    </vehicle>
    <vehicle id="bicycle_11" type="bicycle" depart="1980.00">
        <route edges="-8598773#3 -8598773#2 -8598773#1 -8598773#0 575729552#0 575729552#1 4086429 4332731 745183365#0 -575729108#4 -575729108#3 -575729108#2 -575729108#1 -575729555 -940627086 -4332734#7 -4332734#6 -4332734#5 -4332734#4 -4332734#3 -4332734#2 -4332734#1 -4332734#0 -4478182 -48630242#3 -48630242#2 -48630242#1 4243614#1 685156794#0 685156794#1 706706674#0 820063579#0 820063579#1 107396681#0 107396681#4 107396681#5 107396681#6 107396681#7 1148489399#0 1148489399#1 1148489399#2 1018627463 -1076442002 -4588647#5 -4588647#4 -4588647#3 -4588647#0 -917450542 1174874706 1182394700 136822582 1174874705 161754856 917450546#0 917450546#2 4637649 1158575268 1156612124 161754854#0 161754854#1 161754854#2 136822571#1 136822571#2 136822571#3 136822574 136822584 369686026 118783737 1035321071#0 1035321071#1 1035321071#2 1035321071#3 1035321071#4 118783734#2 799741450 118783741#0 118783741#1 118783741#2 908668115 908668114#0 908668114#1 1074607189#0 1074607189#1 119883577#1 119883577#4 119883577#5 119883577#6 119883577#7 119883577#8 119883577#9 119883577#10 5019952#0 5019952#1 5019952#2 5019952#4 5019952#5 825090426 704746733#0 -22751222#1" />
    </vehicle>
    <vehicle id="bicycle_12" type="bicycle" depart="2160.00">
        <route edges="904980039#1 379389868#3 -379389868#3 933289326#0 643162726#0 643162726#1 643162726#2 643160792#0 643160792#1 643160792#2 643157901 643157900#0 643157900#1 643157900#2 643157900#3 643157900#5 643157900#6 643157900#7 643150979 15302562 22694403 921182982 22694405 1018575651 160192352#0 160192352#2 1074829257#0 1074829257#1 799741444 799741447#0 118784832#0 118784832#1 757990562 136822575 136822580#0 136822580#1 136822580#2 136822580#3 295073752#0 136822587#0 136822587#1 136822587#2 136822587#3 161754855#0 161754855#1 917450547#0 917450547#2 402897988#1 32981461 775437708 917450543 161754857#0 161754857#1 161754857#2 820063581 709096588 9793961#0-AddedOnRampEdge 9793961#0 9793961#1 9793961#2 -120495019#1 8652887#0 8652887#1 8652887#2 -8652887#2" />
    </vehicle>
    <vehicle id="bicycle_13" type="bicycle" depart="2340.00">
        <route edges="-154837043 154837048#5 1067928183 693141378#3 693141378#5 31807360 31807385 840031283#2 404567031#0 404567031#1 657655984#0 657655984#1 657655984#2 657655984#3 657655984#4 18754937 840031281 137055695 404567018 137055696#0 137055696#1 137055696#2 137055696#4 137055696#5 137055696#6 137055696#8 137055696#9 137055696#13 137055696#14 137055696#15 137055696#16 137055696#17 137055696#20 137055696#21 137055696#22 137055696#23 137055696#24 137055696#25 137055696#27 1066216975#0 1066216975#1 1066216974 -32505399#5 -32505399#4 -32505399#3 -32505399#2 -32505399#0 -32505401 -820063559#1 -820063559#0 -820063534#2 -820063534#1 -820063534#0 -27323189#4 -27323189#3 -27323189#2 -27323189#1 -27276449#4 -27276449#3 -27276449#2 -27276449#1 -643170217#9 -643170217#8 -643170217#7 -643170217#6 -643170217#5 -643170217#4 -643170217#3 -643170217#1 -643170217#0 -643170216#2 -643170216#0 643170215#0 643170215#1 801449565 917970208 24516690 4243613 30678855#0 30678855#1 30678855#2 1090956392#0 1090956392#1 729164042#1 805198994#0 805198994#1 420657996 -27087407#2 -27087407#1 -189980442#4 -189980442#3 -189980442#2 -189980442#1 -189980442#0 -24158218#3 -24158218#2 -24158218#1 -24158218#0 -24164989#0 694630249 923260349 176633481 191549817 -368461882#2 -368461882#1 -368461882#0 -615478344#1 -615478344#0 -615478345 -615456193#2 -615456193#1 -615456193#0 154644778#0 154644778#1 -924607337#4 -924607337#3 -924607337#2 -924607337#1 -924607337#0 -924607338 -303412427#19 -303412427#18 -303412427#17 -303412427#16 -303412427#15 -303412427#14 -303412427#13 -303412427#12 -303412427#11 -303412427#10 -303412427#9 -303412427#8 -303412427#7 -303412427#6 -303412427#5 -303412427#4 -303412427#3 -303412427#2 -303412427#1 -303412427#0 -29377703#4 -29377703#3 -29377703#2 -29377703#1 -29377703#0 -1069829005#2 -1069829005#1 15785430#0 -15785439#1" />
    </vehicle>
    <vehicle id="bicycle_14" type="bicycle" depart="2520.00">
        <route edges="697708631 1066230416#0 1066230416#1 303140676 755395442 27768032#0 27768032#1 27768032#2 27768032#3 27768032#4 27768032#5 27768032#6 32527595#13 674167443 615456194 820063590 615456195 615456193#0 615456193#1 615456193#2 615478345 615478344#0 615478344#1 368461882#0 368461882#1 368461882#2 694268908 923261416 694268909#0 694268909#1 1176045778 82694445#0 82694445#1 82694445#2 1176045777 82694458#0 82694458#1 575729552#0 575729552#1 4086429 4332731 745183365#0 -575729108#4 -575729108#3 -575729108#2 -575729108#1 -575729555 -940627086 -4332734#7 -4332734#6 -4332734#5 -4332734#4 -4332734#3 -4332734#2 -4332734#1 -4332734#0 -4478182 -48630242#3 -48630242#2 -48630242#1 4243614#1 685156794#0 685156794#1 706706674#0 706706677#1 923226200 10267170#0 10267170#2 780755505#0 780755505#1 780755505#2 780755506 13972248 -1149866169 -176633461#2 -176633461#1 -176633461#0 -150867896#17 -150867896#16 -163534559 751189858#0 751189858#1 675770226 -124013044#4 183689345#0" />
    </vehicle>
    <vehicle id="bicycle_15" type="bicycle" depart="2700.00">
        <route edges="583421939 840017179 799533714#0 799533714#1 126337540 -643170217#9 -643170217#8 -643170217#7 -643170217#6 -643170217#5 -643170217#4 -643170217#3 -643170217#1 -643170217#0 -643170216#2 -643170216#0 643170215#0 643170215#1 801449565 917970208 24516690 4243613 30678855#0 30678855#1 30678855#2 1090956392#0 1090956392#1 729164042#1 805198994#0 805198994#1 420657996 -27087407#2 -27087407#1 -189980442#4 -189980442#3 -189980442#2 -189980442#1 -189980442#0 -24158218#3 -24158218#2 -24158218#1 -24158218#0 -24164989#0 694630249 923260349 176633481 191549817 -368461882#2 -368461882#1 -368461882#0 -615478344#1 -615478344#0 -615478345 -615456193#2 -615456193#1 -615456193#0 154644778#0 154644778#1 708734829 32527596 368461883 -32527595#13 -32527595#12 -32527595#11 -32527595#10 -32527595#9 -32527595#8 -32527595#7 -32527595#6 -32527595#5 -32527595#4 32527595#4 32527595#5 32527595#6 32527595#7" />
    </vehicle>
    <vehicle id="bicycle_16" type="bicycle" depart="2880.00">
        <route edges="156307521#0 156307521#1 156307521#2 156307521#3 156307521#4 -156307556#4 -156307556#3 -156307556#2 -156307556#1 -156307556#0 1122524648#0 1122524648#1 1122524648#2 158627300#0 158627300#1 158627300#2 158627301#0 158627301#2 901576874 863467429#0 863467429#1 7286859 28596739#0 28596739#1 4350722 369830941 17899147#0 17899147#1 178592042 945948200#0 945948200#1 945948198 178592044#0 178592044#1 178592044#3 1072028684#0 1072028684#1 820063582#0 820063582#1 945948203 54338767#0 54338767#1 54338767#2 1072039865#1 704746731#0 704746731#2 704746731#3 1171640558 20816626#0 20816626#1 310627474#0 310627474#1 310627474#2 310627474#3 310627474#4 310627474#7 1074607188 940612553 757990561 121188638 126342421 136822570 757990562 136822575 136822580#0 136822580#1 136822580#2 136822580#3 295073752#0 136822587#0 136822587#1 136822587#2 136822587#3 161754855#0 161754855#1 917450547#0 917450547#2 402897988#1 917450544#0 917450544#1 917450544#2 1112806233-AddedOnRampEdge 1112806233 4588647#0 4588647#3 4588647#4 4588647#5 1076442002 1018627464 4258656#0 4258656#1 4258656#2 4258656#4 729164042#1 805198994#0 805198994#1 420657996 -27087407#2 -27087407#1 -189980442#4 -189980442#3 -189980442#2 -189980442#1 -189980442#0 -24158218#3 -24158218#2 -24158218#1 -24158218#0 -24164989#0 694630249 923260349 176633481 191549817 923261417#0 923261417#1" />
    </vehicle>
    <vehicle id="bicycle_17" type="bicycle" depart="3060.00">
        <route edges="-9495769#0 9867087#2 832779570#1 832779570#2 832779570#3 832779570#5 832779570#6 832779568#0 832779568#1 832779568#2 832779569#0 832779569#1 -825090431#1 -825090431#0 -808241986 -28347490#2 -22751166#2 -22751166#1 -22751166#0 -126342417#0 136822587#0 136822587#1 136822587#2 136822587#3 161754855#0 161754855#1 917450547#0 917450547#2 402897988#1 917450544#0 917450544#1 917450544#2 1112806233-AddedOnRampEdge 1112806233 4588647#0 4588647#3 4588647#4 4588647#5 1076442002 1018627464 4258656#0 4258656#1 4258656#2 4258656#4 729164042#1 805198994#0 805198994#1 420657996 -27087407#2 -27087407#1 -189980442#4 -189980442#3 -189980442#2 24158239#6 -24158210#1 -1085331332 15833850#0 15833850#1 15833850#2 15833850#3 15833850#4 15833850#5" />
    </vehicle>
    <vehicle id="bicycle_18" type="bicycle" depart="3240.00">
        <route edges="643170219 643170216#0 643170216#2 643170217#0 643170217#1 643170217#3 643170217#4 643170217#5 643170217#6 643170217#7 643170217#8 643170217#9 27276449#1 27276449#2 27276449#3 27276449#4 27323189#1 27323189#2 27323189#3 27323189#4 820063534#0 820063534#1 820063534#2 820063559#0 820063559#1 32505401 32505399#0 32505399#2 32505399#3 32505399#4 32505399#5 643150979 15302562 22694403" />
    </vehicle>
    <vehicle id="bicycle_19" type="bicycle" depart="3333.33">
        <route edges="741799316#1 741799316#2 741799316#3 9136006#1 806249268 806249267 806249266 370191605#0 370191605#1 936611979 825090445 186866771 1112445264 757990560#0 757990560#1 757990560#3 296328219 704746729#0 704746729#1 704746729#2 435468253#0 435468253#1 435468253#2 704746731#0 704746731#2 704746731#3 1171640558 20816626#0 20816626#1 310627474#0 310627474#1 310627474#2 310627474#3 310627474#4 310627474#7 1074607188 940612553 757990561 121188638 126342421 136822570 757990562 136822575 136822580#0 136822580#1 136822580#2 136822580#3 295073752#0 126342417#0 126342417#1 126342417#2 -160192350#1 -9495484 161754854#2" />
    </vehicle>
    <vehicle id="bicycle_20" type="bicycle" depart="3513.33">
        <route edges="29254951#0 29254951#1 -71942401#0 154644765 71380492#0 71380492#1 -15834230 615456195 615456193#0 615456193#1 615456193#2 615478345 615478344#0 615478344#1 368461882#0 368461882#1 368461882#2 694268908 923261416 694268909#0 694268909#1 1176045778 82694445#0 82694445#1 82694445#2 1176045777 82694458#0 82694458#1 575729552#0 575729552#1 4086429 4332731 745183365#0 -575729108#4 -575729108#3 -575729108#2 -575729108#1 -575729555 -940627086 -4332734#7 -4332734#6 -4332734#5 -4332734#4 -4332734#3 -4332734#2 -4332734#1 -4332734#0 -4478182 -48630242#3 -48630242#2 -48630242#1 4243614#1 685156794#0 685156794#1 706706674#0 820063579#0 820063579#1 107396681#0 107396681#4 107396681#5 107396681#6 107396681#7 1148489399#0 1148489399#1 1148489399#2 1018627463 -1076442002 -4588647#5 -4588647#4 -4588647#3 -4588647#0 -917450542 1174874706 1182394700 136822582 1174874705 161754856 917450546#0 917450546#2 4637649 1158575268 1156612124 161754854#0 161754854#1 161754854#2 136822571#1 136822571#2 136822571#3 136822574 136822584 369686026 118783737 1035321071#0 1035321071#1 1035321071#2 1035321071#3 1035321071#4 118783734#2 799741450 118783741#0 118783741#1 118783741#2 908668115 908668114#0 908668114#1 1074607189#0 1074607189#1 119883577#1 119883577#4 119883577#5 119883577#6 119883577#7 119883577#8 119883577#9 119883577#10 5019469#0 5019469#1 836645499 -836645498 12254923#2 12254923#3 -12254923#3" />
    </vehicle>
    <vehicle id="bicycle_21" type="bicycle" depart="3693.33">
        <route edges="-29378777#0 29378777#0 29378777#1 29378777#2 29378777#3 29378777#4 29378777#5 -4478182 -48630242#3 -48630242#2 -48630242#1 4243614#1 685156794#0 685156794#1 706706674#0 820063579#0 820063579#1 107396681#0 107396681#4 107396681#5 107396681#6 107396681#7 1148489399#0 1148489399#1 1148489399#2 1018627463 1018627464 4258656#0 4258656#1 4258656#2 4258656#4 4588648#0 4588648#1 4588648#2 4588648#3 643170764#1 1090956393 1090956391 -30678855#2 -30678855#1 -30678855#0 -4243613 -24516690 -917970208 -801449565 -643170215#1 -643170215#0 643170216#0 643170216#2 643170217#0 643170217#1 643170217#3 -643170217#3 -643170217#1" />
    </vehicle>
    <vehicle id="bicycle_22" type="bicycle" depart="3873.33">
        <route edges="-150158651#3 -150158651#2 -150158651#0 634092846#0 634092846#1 833362282 735022799#0 735022799#1 370191604 370191605#0 370191605#1 936611979 825090445 186866771 1112445264 757990560#0 757990560#1 757990560#3 296328219 704746729#0 704746729#1 704746729#2 435468253#0 435468253#1 435468253#2 704746731#0 704746731#2 704746731#3 1171640558 20816626#0 20816626#1 310627474#0 310627474#1 310627474#2 310627474#3 310627474#4 310627474#7 1074607188 940612553 757990561 121188638 126342421 136822570 757990562 136822575 136822580#0 136822580#1 136822580#2 136822580#3 295073752#0 136822587#0 136822587#1 136822587#2 136822587#3 161754855#0 161754855#1 917450547#0 917450547#2 402897988#1 917450544#0 917450544#1 917450544#2 1112806233-AddedOnRampEdge 1112806233 4588647#0 4588647#3 4588647#4 4588647#5 1076442002 1018627464 4258656#0 4258656#1 4258656#2 4258656#4 729164042#1 805198994#0 805198994#1 420657996 -27087407#2 -27087407#1 -189980442#4 -189980442#3 -189980442#2 -189980442#1 -189980442#0 -24158218#3 -24158218#2 -24158218#1 -24158218#0 -24164989#0 694630249 923260349 176633481 191549817 -368461882#2 -368461882#1 -368461882#0 -615478344#1 -615478344#0 -615478345 -615456193#2 -615456193#1 -615456193#0 154644778#0 154644778#1 -924607337#4 -924607337#3 -924607337#2 -924607337#1 -924607337#0 -924607338 -303412427#19 -303412427#18 -303412427#17 -303412427#16 -303412427#15 -303412427#14 -303412427#13 -303412427#12 -303412427#11 -303412427#10 -303412427#9 -303412427#8 -303412427#7 -303412427#6 -303412427#5 -303412427#4 -303412427#3 -303412427#2 -303412427#1 -303412427#0 303412433#0 -303412430" />
    </vehicle>
    <vehicle id="bicycle_23" type="bicycle" depart="4053.33">
        <route edges="-15785441#2 -15785441#1 -1076637536 -15785439#5 -15785439#4 -15785423#0 29377703#0 29377703#1 29377703#2 29377703#3 29377703#4 303412427#0 303412427#1 303412427#2 303412427#3 303412427#4 303412427#5 303412427#6 303412427#7 303412427#8 303412427#9 303412427#10 303412427#11 303412427#12 303412427#13 303412427#14 303412427#15 303412427#16 303412427#17 303412427#18 303412427#19 924607338 924607337#0 924607337#1 924607337#2 924607337#3 924607337#4 615456195 615456193#0 615456193#1 615456193#2 615478345 615478344#0 615478344#1 368461882#0 368461882#1 368461882#2 694268908 923261416 694268909#0 694268909#1 1176045778 82694445#0 82694445#1 82694445#2 1176045777 82694458#0 82694458#1 575729552#0 575729552#1 4086429 4332731 745183365#0 -575729108#4 -575729108#3 -575729108#2 -575729108#1 -575729555 -940627086 -4332734#7 -4332734#6 -4332734#5 -4332734#4 -4332734#3 -4332734#2 -4332734#1 -4332734#0 -4478182 -48630242#3 -48630242#2 -48630242#1 4243614#1 685156794#0 685156794#1 706706674#0 820063579#0 820063579#1 107396681#0 107396681#4 107396681#5 107396681#6 107396681#7 1148489399#0 1148489399#1 1148489399#2 1018627463 -1076442002 -4588647#5 -4588647#4 -4588647#3 -4588647#0 -917450542 1174874706 1182394700 136822582 1174874705 161754856 917450546#0 917450546#2 4637649 1158575268 1156612124 161754854#0 161754854#1 161754854#2 136822571#1 136822571#2 136822571#3 136822574 136822584 369686026 118783737 1035321071#0 1035321071#1 1035321071#2 1035321071#3 1035321071#4 118783734#2 799741450 1068364362 421767353#0 421767353#1 421767353#2 421767353#3 421767353#4 421767353#5 421767353#6 421767353#7 160192353 921182983 22694404 4491076 9867481 840031280#0 840031280#1 1066216976 -137055696#27 -137055696#25 -137055696#24 -137055696#23 -137055696#22 -137055696#21 -137055696#20 -137055696#17 -137055696#16 -137055696#15 -137055696#14 -137055696#13 -137055696#9 -137055696#8 -137055696#6 -137055696#5 -137055696#4 -137055696#2 -137055696#1 -137055696#0 -404567018 -137055695 -840031281 840031282 404567022 840031284#0 840031284#1 704771884#1 -31807385 -31807360 -693141378#5 -693141378#3 -693141378#1 -693141378#0 -693141379#1 -693141379#0 -154837039#13 -154837039#12 -154837039#11 -154837039#10 -154837039#9 -154837039#8 894430767#0 894430767#1 28816857 -573461197 573429038#0 573429038#1 -573429038#1 -573429038#0" />
    </vehicle>
    <vehicle id="bicycle_24" type="bicycle" depart="4233.33">
        <route edges="23296582#4 -23296582#4 -23296582#3 -23296582#2 -23296582#1 -23296582#0 557041228#1 557041228#2 799533699 900703372 23296568 799533698 -643170217#3 -643170217#1 -643170217#0 -643170216#2 -643170216#0 643170215#0 643170215#1 801449565 917970208 -917970208" />
    </vehicle>
    <vehicle id="bicycle_25" type="bicycle" depart="4413.33">
        <route edges="-91845515 -825090425 -12255029#1 -12255029#0 160192339#0 160192339#1 1085084602 22729816 832779574#0 832779574#1 369686016#0 369686016#1 369686016#2 1068364362 421767353#0 421767353#1 421767353#2 421767353#3 421767353#4 421767353#5 421767353#6 421767353#7 160192353 921182983 22694404 4491076 9867481 840031280#0 840031280#1 1066216976 -137055696#27 -137055696#25 -137055696#24 -137055696#23 -137055696#22 -137055696#21 -137055696#20 1066216972 1067927152 -137055699#5 -137055699#4 -137055699#3 -137055699#2 -137055699#1 -137055699#0 -32027328 -332100657#4 28596316#0 28596316#1 332100659 -1069105686 332100660#0 332100660#1 -332100660#1 -332100660#0 1069105686 -332100659 -28596316#1" />
    </vehicle>
    <vehicle id="bicycle_26" type="bicycle" depart="4593.33">
        <route edges="-4478182 -48630242#3 -48630242#2 -48630242#1 4243614#1 685156794#0 685156794#1 706706674#0 820063579#0 820063579#1 107396681#0 107396681#4 107396681#5 107396681#6 107396681#7 1148489399#0 1148489399#1 1148489399#2 1018627463 1018627464 4258656#0 4258656#1 4258656#2 4258656#4 4588648#0 4588648#1 4588648#2 4588648#3 643170764#1 1090956393 1090956391 -30678855#2 -30678855#1 -30678855#0 -4243613 -24516690 -917970208 -801449565 -643170215#1 -643170215#0 -1123244160#2 -879147767 692701686#0 692701686#1 692701686#2 692701686#3 692701686#4 879147761#0 879147761#1 879147761#2 879147761#3 -879147763#1 -879147763#0 879147763#0 879147763#1" />
    </vehicle>
    <vehicle id="bicycle_27" type="bicycle" depart="4773.33">
        <route edges="24158463#0 24158463#1 24164989#6 24164989#7 24164989#8 24164989#9 24164989#10 24164989#11 -940627086 -4332734#7 -4332734#6 -4332734#5 -4332734#4 -4332734#3 -4332734#2 -4332734#1 -4332734#0 -4478182 -48630242#3 -48630242#2 -48630242#1 4243614#1 685156794#0 685156794#1 706706674#0 820063579#0 820063579#1 107396681#0 107396681#4 107396681#5 107396681#6 107396681#7 1148489399#0 1148489399#1 1148489399#2 1018627463 -1076442002 -4588647#5 -4588647#4 -4588647#3 -4588647#0 -917450542 1174874706 1182394700 136822582 1174874705 161754856 917450546#0 917450546#2 4637649 1158575268 1156612124 161754854#0 161754854#1 161754854#2 136822571#1 136822571#2 136822571#3 136822574 136822584 369686026 118783737 1035321071#0 1035321071#1 1035321071#2 1035321071#3 1035321071#4 118783734#2 799741450 118783741#0 118783741#1 118783741#2 908668115 908668114#0 908668114#1 1074607189#0 1074607189#1 119883577#1 119883577#4 119883577#5 119883577#6 119883577#7 119883577#8 119883577#9 119883577#10 5019952#0 5019952#1 5019952#2 5019952#4 5019952#5 825090426 150158647#0 150158647#1 150158647#2 908375510 908375514#0 908375514#1 402902177 186866770" />
    </vehicle>
    <vehicle id="bicycle_28" type="bicycle" depart="4953.33">
        <route edges="-23784738#2 23784738#2 99810162#0 99810162#1 -124013054#1 -124013054#0 -9793977 -780755508 -124013055#4 -124013055#2 -124013055#0 1149866170#0 1149866169 -13972248 -780755506 -780755505#2 -780755505#1 -780755505#0 -10267170#2 -10267170#0 -923226200 -706706677#1 820063579#0 820063579#1 24247758#0 24247758#1 24247758#2 24247758#3 24247758#4 24247758#5 24247758#6 820063578#0 820063578#1 48630242#1 48630242#2 48630242#3 4478182 4332734#0 4332734#1 4332734#2 4332734#3 4332734#4 4332734#5 4332734#6 4332734#7 940627086 575729555 575729108#1 575729108#2 575729108#3 575729108#4 745183363 745183362 745183364#0 745183364#1 745183364#2 -82694458#1 -82694458#0 -1176045777 -82694445#2 -82694445#1 -82694445#0 -1176045778 -694268909#1 -694268909#0 -923261416 -694268908 -368461882#2 -368461882#1 -368461882#0 -615478344#1 -615478344#0 -615478345 -615456193#2 -615456193#1 -615456193#0 154644778#0 154644778#1 708734829 32527596 368461883 -32527595#13 -32527595#12 -32527595#11 -32527595#10 -32527595#9 -32527595#8 -32527595#7 -32527595#6 -32527595#5 -32527595#4 32527595#4" />
    </vehicle>
    <vehicle id="bicycle_29" type="bicycle" depart="5133.33">
        <route edges="-22751838#4 -22751838#3 22751838#3 22751838#4 22751838#5 22751838#6 22751838#7 22751838#8 161754856 917450546#0 917450546#2 4637649 1158575268 1156612124 161754854#0 161754854#1 161754854#2 136822571#1 136822571#2 136822571#3 136822574 136822584 369686026 118783737 1035321071#0 1035321071#1 1035321071#2 1035321071#3 1035321071#4 118783734#2 799741448 799741449#0 799741449#1 799741449#2 799741449#3 369686018 832779570#0 -9867087#2" />
    </vehicle>
    <vehicle id="bicycle_30" type="bicycle" depart="5313.33">
        <route edges="97073858#4 97073858#6 97073858#7 296328219 704746729#0 704746729#1 704746729#2 435468253#0 435468253#1 435468253#2 704746731#0 704746731#2 704746731#3 1171640558 20816626#0 20816626#1 310627474#0 310627474#1 310627474#2 310627474#3 310627474#4 310627474#7 1074607188 940612553 757990561 121188638 126342421 136822570 757990562 136822575 136822580#0 136822580#1 136822580#2 136822580#3 295073752#0 136822587#0 136822587#1 136822587#2 136822587#3 161754855#0 161754855#1 917450547#0 917450547#2 402897988#1 917450544#0 917450544#1 917450544#2 1112806233-AddedOnRampEdge 1112806233 4588647#0 4588647#3 4588647#4 4588647#5 1076442002 1018627464 4258656#0 4258656#1 4258656#2 4258656#4 729164042#1 805198994#0 805198994#1 420657996 -27087407#2 -27087407#1 -189980442#4 -189980442#3 -189980442#2 -189980442#1 -189980442#0 -24158218#3 -24158218#2 24158218#2" />
    </vehicle>
    <vehicle id="bicycle_31" type="bicycle" depart="5493.33">
        <route edges="158627309#2 34546107 156307521#0 156307521#1 156307521#2 156307521#3 156307521#4 -156307556#4 -156307556#3 -156307556#2 -156307556#1 -156307556#0 1122524648#0 1122524648#1 1122524648#2 158627300#0 158627300#1 158627300#2 158627301#0 158627301#2 901576874 863467429#0 863467429#1 7286859 28596739#0 28596739#1 4350722 369830941 17899147#0 17899147#1 178592042 945948200#0 945948200#1 945948198 178592044#0 178592044#1 178592044#3 1072028684#0 1072028684#1 820063582#0 820063582#1 945948203 54338767#0 54338767#1 54338767#2 1072039865#1 704746731#0 704746731#2 704746731#3 1171640558 20816626#0 20816626#1 310627474#0 310627474#1 310627474#2 310627474#3 310627474#4 310627474#7 1074607188 940612553 757990561 121188638 126342421 136822570 757990562 136822575 136822580#0 136822580#1 136822580#2 136822580#3 295073752#0 126342417#0 126342417#1 126342417#2 28347490#0" />
    </vehicle>
    <vehicle id="bicycle_32" type="bicycle" depart="5673.33">