<?xml version='1.0' encoding='utf-8'?>
<routes xmlns:xsi="http://www.w3.org/2001/XMLSchema-instance" xsi:noNamespaceSchemaLocation="http://sumo.dlr.de/xsd/routes_file.xsd">
    <vType id="bicycle" length="2.00" minGap="1.50" maxSpeed="15.00" color="cyan" accel="1.5" decel="3.0" sigma="0.5" />
    <vehicle id="bicycle3_0" type="bicycle" depart="0.00">
        <route edges="187486755#0 187486755#1 187486755#2 187486755#3 187486755#4 187486758#0 187486758#1 187486758#5 1072039865#1 704746731#0 704746731#2 704746731#3 1171640558 20816626#0 20816626#1 310627474#0 310627474#1 310627474#2 310627474#3 310627474#4 310627474#7 1074607188 940612553 757990561 121188638 126342421 136822570 757990562 136822575 136822580#0 136822580#1 136822580#2 136822580#3 295073752#0 136822587#0 136822587#1 136822587#2 136822587#3 161754855#0 161754855#1 917450547#0 917450547#2 402897988#1 917450544#0 917450544#1 917450544#2 1112806233-AddedOnRampEdge 1112806233 4588647#0 4588647#3 4588647#4 4588647#5 1076442002 -1076442002" />
    </vehicle>
    <vehicle id="bicycle3_1" type="bicycle" depart="32.14">
        <route edges="-303412434 820063576 303412430 -303412433#0 303412427#0 303412427#1 303412427#2 303412427#3 303412427#4 303412427#5 303412427#6 303412427#7 303412427#8 303412427#9 303412427#10 303412427#11 303412427#12 303412427#13 303412427#14 303412427#15 303412427#16 303412427#17 303412427#18 303412427#19 924607338 924607337#0 924607337#1 924607337#2 924607337#3 924607337#4 615456195 615456193#0 615456193#1 615456193#2 615478345 615478344#0 615478344#1 368461882#0 368461882#1 368461882#2 694268908 923261416 694268909#0 694268909#1 1176045778 82694445#0 82694445#1 82694445#2 1176045777 82694458#0 82694458#1 575729552#0 575729552#1 4086429 4332731 745183365#0 -575729108#4 -575729108#3 -575729108#2 -575729108#1 -575729555 -940627086 -4332734#7 -4332734#6 -4332734#5 -4332734#4 -4332734#3 -4332734#2 -4332734#1 -4332734#0 -4478182 -48630242#3 -48630242#2 -48630242#1 4243614#1 685156794#0 685156794#1 706706674#0 820063579#0 820063579#1 107396681#0 107396681#4 107396681#5 107396681#6 107396681#7 1148489399#0 1148489399#1 1148489399#2 1018627463 -1076442002 -4588647#5 -4588647#4 -4588647#3 -4588647#0 -917450542 1174874706 1182394700 136822582 1174874705 161754856 917450546#0 917450546#2 4637649 1158575268 1156612124 161754854#0 161754854#1 161754854#2 136822571#1 136822571#2 136822571#3 136822574 136822584 369686026 121188635 332624272 126342419 757990549 1074607189#0 1074607189#1 119883577#1 119883577#4 119883577#5 119883577#6 119883577#7 119883577#8 119883577#9 119883577#10 5019952#0 5019952#1 5019952#2 5019952#4 5019952#5 825090426 704746733#0 9160986#0 9160986#1 9160986#2 9160986#3 945948204 820063589 820063588 -22751216#5 -22751224#4 -22751224#3 896605460 -28788646#0" />
    </vehicle>
    <vehicle id="bicycle3_2" type="bicycle" depart="64.29">
        <route edges="29170622#2 176435844#4 176435844#5 176435844#6 176435844#7 820063588 820063582#0 820063582#1 945948203 54338767#0 54338767#1 54338767#2 1072039865#1 704746731#0 704746731#2 704746731#3 1171640558 20816626#0 20816626#1 310627474#0 310627474#1 310627474#2 310627474#3 310627474#4 310627474#7 1074607188 940612553 757990561 121188638 126342421 136822570 757990562 136822575 136822580#0 136822580#1 136822580#2 136822580#3 295073752#0 136822587#0 136822587#1 136822587#2 136822587#3 161754855#0 161754855#1 917450547#0 917450547#2 402897988#1 917450544#0 917450544#1 917450544#2 1112806233-AddedOnRampEdge 1112806233 4588647#0 4588647#3 4588647#4 4588647#5 1076442002 1018627464 4258656#0 4258656#1 4258656#2 4258656#4 729164042#1 805198994#0 805198994#1 420657996 24158358#0 24158358#1 24158358#2 24158358#3 24158358#4 24158358#5 24158358#6 24164967#0 24164967#1" />
    </vehicle>
    <vehicle id="bicycle3_3" type="bicycle" depart="96.43">
        <route edges="704746731#0 704746731#2 704746731#3 1171640558 20816626#0 20816626#1 310627474#0 310627474#1 310627474#2 310627474#3 310627474#4 310627474#7 1074607188 940612553 757990561 121188638 126342421 136822570 757990562 136822575 136822580#0 136822580#1 136822580#2 136822580#3 295073752#0 136822587#0 136822587#1 136822587#2 136822587#3 161754855#0 161754855#1 917450547#0 917450547#2 402897988#1 917450544#0 917450544#1 917450544#2 1112806233-AddedOnRampEdge 1112806233 4588647#0 4588647#3 4588647#4 4588647#5 1076442002 1018627464 4258656#0 4258656#1 4258656#2 4258656#4 729164042#1 805198994#0 805198994#1 329609972#0 329609972#1 729164041#0 729164041#1 820063578#0 820063578#1 48630242#1 48630242#2 48630242#3 4478182 4332734#0 4332734#1 4332734#2 4332734#3 4332734#4 4332734#5 4332734#6 4332734#7 940627086 575729555 575729108#1 575729108#2 575729108#3 575729108#4 745183363 745183362 745183364#0 745183364#1 745183364#2 -82694458#1 -82694458#0 -1176045777 -82694445#2 -82694445#1 -82694445#0 -1176045778 -694268909#1 -694268909#0 -923261416 -694268908 -368461882#2 -368461882#1 -368461882#0 -615478344#1 -615478344#0 -615478345 -615456193#2 -615456193#1 -615456193#0 154644778#0 154644778#1 -924607337#4 -924607337#3 -924607337#2 -924607337#1 -924607337#0 -924607338 -303412427#19 -303412427#18 -303412427#17 -303412427#16 -303412427#15 -303412427#14 -303412427#13 -303412427#12 -303412427#11 -303412427#10 -303412427#9 -303412427#8 -303412427#7 -303412427#6 -303412427#5 -303412427#4 -303412427#3 -303412427#2 -303412427#1 -303412427#0 -29377703#4 -29377703#3 -29377703#2 15785426 -15785439#5 -15785439#4" />
    </vehicle>
    <vehicle id="bicycle3_4" type="bicycle" depart="128.57">
        <route edges="1074607188 940612553 757990561 121188638 126342421 136822570 757990562 136822575 136822580#0 136822580#1 136822580#2 136822580#3 295073752#0 136822587#0 136822587#1 136822587#2 136822587#3 161754855#0 161754855#1 917450547#0 917450547#2 402897988#1 917450544#0 917450544#1 917450544#2 1112806233-AddedOnRampEdge 1112806233 4588647#0 4588647#3 4588647#4 4588647#5 1076442002 1018627464 4258656#0 4258656#1 4258656#2 4258656#4 729164042#1 805198994#0 805198994#1 329609972#0 329609972#1 729164041#0 729164041#1 820063578#0 820063578#1 48630242#1 48630242#2 24248542 1068888837 563377900 563377901 -1110672544" />
    </vehicle>
    <vehicle id="bicycle3_5" type="bicycle" depart="160.71">
        <route edges="-28343787#0 -160192360#0 136822571#1 136822571#2 136822571#3 136822574 136822584 369686026 121188635 332624272 126342419 757990549 1074607189#0 1074607189#1 119883577#1 119883577#4 119883577#5 119883577#6 119883577#7 119883577#8 119883577#9 119883577#10 5019952#0 5019952#1 5019952#2 5019952#4 5019952#5 825090426 126350685#1 126350685#2 126350685#3" />
    </vehicle>
    <vehicle id="bicycle3_6" type="bicycle" depart="192.86">
        <route edges="-1076360289 34546416 -29397305 29397305 -34546416 1076360289 -29170675#2 -29170675#1 -29170675#0 54338767#0 54338767#1 54338767#2 1072039865#1 704746731#0 704746731#2 704746731#3 1171640558 20816626#0 20816626#1 310627474#0 310627474#1 310627474#2 310627474#3 310627474#4 310627474#7 1074607188 940612553 757990561 121188638 126342421 136822570 757990562 136822575 136822580#0 136822580#1 136822580#2 136822580#3 295073752#0 136822587#0 136822587#1 136822587#2 136822587#3 161754855#0 161754855#1 917450547#0 917450547#2 402897988#1 917450544#0 917450544#1 917450544#2 1112806233-AddedOnRampEdge 1112806233 4588647#0 4588647#3 4588647#4 4588647#5 1076442002 1018627464 4258656#0 4258656#1 4258656#2 4258656#4 729164042#1 805198994#0 805198994#1 329609972#0 329609972#1 729164041#0 729164041#1 820063578#0 820063578#1 48630242#1 48630242#2 48630242#3 4478182 4332734#0 4332734#1 -24248441#2 -24248438#2 -24248490" />
    </vehicle>
    <vehicle id="bicycle3_7" type="bicycle" depart="225.00">
        <route edges="22729816 832779574#0 832779574#1 369686016#0 369686016#1 369686016#2 126342428 799741447#0 118784832#0 118784832#1 757990562 136822575 136822580#0 136822580#1 136822580#2 136822580#3 295073752#0 136822587#0 136822587#1 136822587#2 136822587#3 161754855#0 161754855#1 917450547#0 917450547#2 402897988#1 917450544#0 917450544#1 917450544#2 1112806233-AddedOnRampEdge 1112806233 4588647#0 4588647#3 4588647#4 4588647#5 1076442002 1018627464 4258656#0 4258656#1 4258656#2 4258656#4 729164042#1 805198994#0 805198994#1 329609972#0 329609972#1 729164041#0 729164041#1 820063578#0 820063578#1 48630242#1 48630242#2 48630242#3 4478182 4332734#0 4332734#1 4332734#2 4332734#3 4332734#4 4332734#5 4332734#6 4332734#7 940627086 575729555 575729108#1 575729108#2 575729108#3 575729108#4 745183363 745183362 745183364#0 745183364#1 745183364#2 -82694458#1 -82694458#0 -1176045777 -82694445#2 -82694445#1 -82694445#0 -1176045778 -694268909#1 -694268909#0 -923261416 -694268908 -368461882#2 -368461882#1 -368461882#0 -615478344#1 -615478344#0 -615478345 -615456193#2 -615456193#1 -615456193#0 154644778#0 154644778#1 -924607337#4 -924607337#3 -924607337#2 -924607337#1 -924607337#0 -924607338 -303412427#19 -303412427#18 -303412427#17 -303412427#16 -303412427#15 -303412427#14 -303412427#13 -303412427#12 -303412427#11 -303412427#10 -303412427#9 -303412427#8 -303412427#7 -303412427#6 -303412427#5 -303412427#4 -303412427#3 -303412427#2 -303412427#1 -303412427#0 -29377703#4 -29377703#3 -29377703#2 -29377703#1 -29377703#0 -1069829005#2 -1069829005#1 -1069829005#0 -15785418#7 -15785418#6 -15785418#5 -15785418#4 -15785418#3 -15785418#2 -15785418#1 -15785418#0 15785418#0 15785418#1" />
    </vehicle>
    <vehicle id="bicycle3_8" type="bicycle" depart="257.14">
        <route edges="-28343791#0 -28343787#2 -28343787#0 -160192360#0 126342417#0 126342417#1 126342417#2 -160192350#1 160192350#1" />
    </vehicle>
    <vehicle id="bicycle3_10" type="bicycle" depart="321.43">
        <route edges="418206264 -418206264 4086429 4332731 745183365#0 -575729108#4 -575729108#3 -575729108#2 -575729108#1 -575729555 -940627086 -24509303#5 -24509303#4 -24509303#3 -24509303#2 -24509303#1 24248525 855694814 24248441#0" />
    </vehicle>
    <vehicle id="bicycle3_11" type="bicycle" depart="353.57">
        <route edges="-825090424#2 -825090424#1 310627474#7 1074607188 940612553 757990561 121188638 126342421 136822570 757990562 136822575 136822580#0 136822580#1 136822580#2 136822580#3 295073752#0 136822587#0 136822587#1 136822587#2 136822587#3 161754855#0 161754855#1 917450547#0 917450547#2 402897988#1 917450544#0 917450544#1 917450544#2 1112806233-AddedOnRampEdge 1112806233 4588647#0 4588647#3 4588647#4 4588647#5 1076442002 1018627464 4258656#0 4258656#1 4258656#2 4258656#4 729164042#1 805198994#0 805198994#1 329609972#0 329609972#1 729164041#0 729164041#1 820063578#0 820063578#1 48630242#1 48630242#2 48630242#3 4478182 4332734#0 4332734#1 4332734#2 4332734#3 4332734#4 4332734#5 4332734#6 4332734#7 940627086 575729555 575729108#1 575729108#2 575729108#3 575729108#4 745183363 745183362 745183364#0 745183364#1 745183364#2 -82694458#1 -82694458#0 -1176045777 -82694445#2 -82694445#1 -82694445#0 -1176045778 -694268909#1 -694268909#0 -923261416 -694268908 -191549817" />
    </vehicle>
    <vehicle id="bicycle3_12" type="bicycle" depart="385.71">
        <route edges="894595931 -1069841145 -303412433#1 -303412433#0 303412427#0 303412427#1 303412427#2 303412427#3 303412427#4 303412427#5 303412427#6 303412427#7 303412427#8 303412427#9 303412427#10 303412427#11 303412427#12 303412427#13 303412427#14 303412427#15 303412427#16 303412427#17 303412427#18 303412427#19 924607338 924607337#0 924607337#1 924607337#2 924607337#3 924607337#4 615456195 615456193#0 615456193#1 615456193#2 615478345 615478344#0 615478344#1 368461882#0 368461882#1 368461882#2 694268908 923261416 694268909#0 694268909#1 1176045778 82694445#0 82694445#1 82694445#2 1176045777 82694458#0 82694458#1 575729552#0 575729552#1 4086429 4332731 745183365#0 -575729108#4 -575729108#3 -575729108#2 -575729108#1 -575729555 -940627086 -4332734#7 -4332734#6 -4332734#5 -4332734#4 -4332734#3 -4332734#2 -4332734#1 -4332734#0 -4478182 -48630242#3 -48630242#2 -48630242#1 4243614#1 685156794#0 685156794#1 706706674#0 820063579#0 820063579#1 107396681#0 107396681#4 107396681#5 107396681#6 107396681#7 1148489399#0 1148489399#1 1148489399#2 1018627463 -1076442002 -4588647#5 -4588647#4 -4588647#3 -4588647#0 -917450542 1174874706 1182394700 136822582 1174874705 161754856 917450546#0 917450546#2 4637649 1158575268 1156612124 161754854#0 161754854#1 161754854#2 136822571#1 136822571#2 136822571#3 136822574 136822584 369686026 121188635 332624272 126342419 757990549 1074607189#0 1074607189#1 119883577#1 825090424#1 825090424#2 -825090424#2" />
    </vehicle>
    <vehicle id="bicycle3_13" type="bicycle" depart="417.86">
        <route edges="-15785441#4 -15785441#3 -15785423#1 -15785423#0 29377703#0 29377703#1 29377703#2 29377703#3 29377703#4 303412427#0 303412427#1 303412427#2 303412427#3 15785456#0 15785456#1 15785462#0 15785462#1 15785462#2 -15785450#2" />
    </vehicle>
    <vehicle id="bicycle3_14" type="bicycle" depart="450.00">
        <route edges="54338767#1 9160986#1 9160986#2 9160986#3 945948204 29170675#0 29170675#1 29170675#2 -1076360289 34546416 -29397305 16174062#2 16174062#3" />
    </vehicle>
    <vehicle id="bicycle3_16" type="bicycle" depart="514.29">
        <route edges="154644806#0 154644806#1 154644806#2 154644806#3 154644806#4 154644806#5 154644806#6 154644806#7 -15834230 615456195 615456193#0 615456193#1 615456193#2 615478345 615478344#0 615478344#1 368461882#0 368461882#1 368461882#2 694268908 923261416 694268909#0 694268909#1 1176045778 82694445#0 82694445#1 82694445#2 1176045777 82694458#0 82694458#1 575729552#0 575729552#1 4086429 4332731 745183365#0 -575729108#4 -575729108#3 -575729108#2 -575729108#1 -575729555 -940627086 -4332734#7 -4332734#6 -4332734#5 -4332734#4 -4332734#3 -4332734#2 -4332734#1 -4332734#0 -4478182 -48630242#3 -48630242#2 -48630242#1 4243614#1 685156794#0 685156794#1 706706674#0 820063579#0 820063579#1 107396681#0 107396681#4 107396681#5 107396681#6 107396681#7 1148489399#0 1148489399#1 1148489399#2 1018627463 -1076442002 -4588647#5 -4588647#4 -4588647#3 -4588647#0 -917450542 1174874706 1182394700 136822582 1174874705 161754856 917450546#0" />
    </vehicle>
    <vehicle id="bicycle3_19" type="bicycle" depart="610.71">
        <route edges="575729108#1 575729108#2 575729108#3 575729108#4 745183363 745183362 745183364#0 745183364#1 745183364#2 -82694458#1 -82694458#0 -1176045777 -82694445#2 -82694445#1 -82694445#0 -1176045778 -694268909#1 -694268909#0 -923261416 -694268908 -368461882#2 -368461882#1 -368461882#0 -615478344#1 -615478344#0 -615478345 -615456193#2 -615456193#1 -615456193#0 154644778#0 154644778#1 -924607337#4 -924607337#3 -924607337#2 -924607337#1 -924607337#0 -924607338 -303412427#19 -303412427#18 -303412427#17 -303412427#16 -303412427#15 -303412427#14 -303412427#13 -303412427#12 -303412427#11 -303412427#10 -303412427#9 -303412427#8 -303412427#7 -303412427#6 -303412427#5 -626683786 15785467" />
    </vehicle>
    <vehicle id="bicycle3_20" type="bicycle" depart="642.86">
        <route edges="24509303#3 -24248460 24248438#1 24248438#2 24248441#2 -4332734#1 -4332734#0 -4478182 -48630242#3 -48630242#2 -48630242#1 4243614#1 685156794#0 685156794#1 706706674#0 820063579#0 820063579#1 107396681#0 107396681#4 107396681#5 107396681#6 107396681#7 1148489399#0 1148489399#1 1148489399#2 1018627463 -1076442002 -4588647#5 -4588647#4 -4588647#3 -4588647#0 -917450542 1174874706 1182394700 136822582 1174874705 161754856 917450546#0 917450546#2 4637649 1158575268 1156612124 161754854#0 161754854#1 161754854#2 136822571#1 136822571#2 136822571#3 136822574 136822584 369686026 118783737 1035321071#0 1035321071#1 1035321071#2 1035321071#3 1035321071#4 118783734#2 799741450 118783741#0 118783741#1 118783741#2 908668115 908668114#0 -1083920535 -1068109073#2 -136953967 -12255029#0" />
    </vehicle>
    <vehicle id="bicycle3_21" type="bicycle" depart="675.00">
        <route edges="-28788646#1 28788646#1 178592044#3 1072028684#0 1072028684#1 820063582#0 820063582#1 945948203 54338767#0 54338767#1 54338767#2 1072039865#1 704746731#0 704746731#2 704746731#3 1171640558 20816626#0 20816626#1 310627474#0 310627474#1 310627474#2 310627474#3 310627474#4 310627474#7 1074607188 940612553 757990561 121188638 126342421 136822570 757990562 136822575 136822580#0 136822580#1 136822580#2 136822580#3 295073752#0 136822587#0 136822587#1 136822587#2 136822587#3 161754855#0 161754855#1 917450547#0 917450547#2 402897988#1 917450544#0 917450544#1 917450544#2 1112806233-AddedOnRampEdge 1112806233 4588647#0 -4588647#0" />
    </vehicle>
    <vehicle id="bicycle3_22" type="bicycle" depart="707.14">
        <route edges="-15785418#7 15785418#7 1069829005#0 1069829005#1 1069829005#2 29377703#0 29377703#1 29377703#2 29377703#3 29377703#4 303412427#0 303412427#1 303412427#2 303412427#3 303412427#4 303412427#5 303412427#6 303412427#7 303412427#8 303412427#9 303412427#10 303412427#11 303412427#12 303412427#13 303412427#14 303412427#15 303412427#16 303412427#17 303412427#18 303412427#19 924607338 924607337#0 924607337#1 924607337#2 924607337#3 924607337#4 615456195 615456193#0 615456193#1 615456193#2 615478345 615478344#0 615478344#1 368461882#0 368461882#1 368461882#2 694268908 923261416 694268909#0 694268909#1 1176045778 82694445#0 82694445#1 82694445#2 1176045777 82694458#0 82694458#1 575729552#0 575729552#1 4086429 4332731 745183365#0 -575729108#4 -575729108#3 -575729108#2 -575729108#1 -575729555 -940627086 -4332734#7 -4332734#6 -4332734#5 -4332734#4 -4332734#3 -4332734#2 -4332734#1 -4332734#0 -4478182 -48630242#3 -48630242#2 -48630242#1 4243614#1 685156794#0 685156794#1 706706674#0 820063579#0 820063579#1 107396681#0 107396681#4 107396681#5 107396681#6 107396681#7 1148489399#0 1148489399#1 1148489399#2 1018627463 -1076442002 -4588647#5 -4588647#4 -4588647#3 -4588647#0 -917450542 1174874706 1182394700 136822582 1174874705 161754856 917450546#0 917450546#2 4637649 1158575268 1156612124 161754854#0 161754854#1 161754854#2 136822571#1 136822571#2 136822571#3 136822574 136822584 369686026 121188635 332624272 126342419 757990549 1074607189#0 1074607189#1 119883577#1 119883577#4 119883577#5 119883577#6 119883577#7 119883577#8 119883577#9 119883577#10 5019952#0 5019952#1 5019952#2 5019952#4 5019952#5 825090426 704746733#0 9160986#0 9160986#1 9160986#2 9160986#3 945948204 820063589 54338771#0 54338771#1 1072788795 29170656#0 29170656#1 -29170628#1" />
    </vehicle>
    <vehicle id="bicycle3_23" type="bicycle" depart="739.29">
        <route edges="-15785450#5 -15785450#4 -15785450#2 -15785450#1 -15785450#0 303412427#7 303412427#8 303412427#9 303412427#10 303412427#11 303412427#12 303412427#13 303412427#14 303412427#15 303412427#16 303412427#17 303412427#18 303412427#19 924607338 924607337#0 924607337#1 924607337#2 924607337#3 924607337#4 615456195 615456193#0 615456193#1 615456193#2 615478345 615478344#0 615478344#1 368461882#0 368461882#1 368461882#2 -368461882#2 -368461882#1" />
    </vehicle>
    <vehicle id="bicycle3_25" type="bicycle" depart="803.57">
        <route edges="-925826461 925826461 369686016#1 369686016#2 126342428 799741447#0 118784832#0 118784832#1 757990562 136822575 136822580#0 136822580#1 136822580#2 136822580#3 295073752#0 136822587#0 136822587#1 136822587#2 136822587#3 161754855#0 161754855#1 917450547#0 917450547#2 402897988#1 917450544#0 -255984631#1 -255984631#0" />
    </vehicle>
    <vehicle id="bicycle3_26" type="bicycle" depart="835.71">
        <route edges="-303412427#4 303412427#4 303412427#5 303412427#6 303412427#7 303412427#8 303412427#9 303412427#10 303412427#11 303412427#12 303412427#13 303412427#14 303412427#15 303412427#16 303412427#17 303412427#18 303412427#19 924607338 924607337#0 924607337#1 924607337#2 924607337#3 924607337#4 615456195 615456193#0 615456193#1 615456193#2 615478345 615478344#0 615478344#1 368461882#0 368461882#1 368461882#2 694268908 923261416 694268909#0 694268909#1 1176045778 82694445#0 82694445#1 82694445#2 1176045777 82694458#0 82694458#1 575729552#0 575729552#1 4086429 4332731 745183365#0 -575729108#4 -575729108#3 -575729108#2 -575729108#1 -575729555 -940627086 -4332734#7 -4332734#6 -4332734#5 -4332734#4 -4332734#3 -4332734#2 -4332734#1 -4332734#0 -4478182 -48630242#3 -48630242#2 -48630242#1 4243614#1 685156794#0 685156794#1 706706674#0 820063579#0 820063579#1 107396681#0 107396681#4 107396681#5 107396681#6 107396681#7 1148489399#0 1148489399#1 1148489399#2 1018627463 -1076442002 -4588647#5 -4588647#4 -4588647#3 -4588647#0 -917450542 1174874706 1182394700 136822582 1174874705 161754856 917450546#0 917450546#2 4637649 1158575268 1156612124 161754854#0 161754854#1 161754854#2 136822571#1 136822571#2 136822571#3 136822574 136822584 369686026 118783737 1035321071#0 825090434#0 825090434#1 825090434#2" />
    </vehicle>
    <vehicle id="bicycle3_27" type="bicycle" depart="867.86">
        <route edges="20816626#0 20816626#1 310627474#0 310627474#1 310627474#2 310627474#3 310627474#4 310627474#7 1074607188 940612553 757990561 121188638 126342421 136822570 757990562 136822575 136822580#0 136822580#1 136822580#2 136822580#3 295073752#0 136822587#0 136822587#1 136822587#2 136822587#3 161754855#0" />
    </vehicle>
    <vehicle id="bicycle3_28" type="bicycle" depart="900.00">
        <route edges="-22751310#2 160192333#0 160192333#1 136822580#2 136822580#3 295073752#0 136822571#1 136822571#2 136822571#3 136822574 136822584 369686026 121188635 332624272 126342419 757990549 1074607189#0 1074607189#1 119883577#1 119883577#4 119883577#5 119883577#6 119883577#7 119883577#8 119883577#9 119883577#10 5019952#0 5019952#1 5019952#2 5019952#4 5019952#5 825090426 704746733#0 9160986#0 9160986#1 9160986#2 9160986#3 945948204 820063589 820063588 -22751216#5 -22751224#4 -22751224#3 896605460 28788646#1" />
    </vehicle>
    <vehicle id="bicycle3_30" type="bicycle" depart="964.29">
        <route edges="945948203 54338767#0 54338767#1 54338767#2 -187486758#5 -187486758#1 -187486758#0 -187486755#4 -187486755#3 -187486755#2 -187486755#1 -187486755#0 187486755#0 187486755#1 187486755#2" />
    </vehicle>
    <vehicle id="bicycle3_31" type="bicycle" depart="996.43">
        <route edges="15785439#1 -15785430#0 1069829005#1 1069829005#2 29377703#0 29377703#1 29377703#2 29377703#3 29377703#4 303412427#0 303412427#1 303412427#2 303412427#3 303412427#4 303412427#5 303412427#6 303412427#7 303412427#8 303412427#9 303412427#10 303412427#11 303412427#12 303412427#13 303412427#14 303412427#15 303412427#16 303412427#17 303412427#18 303412427#19 924607338 924607337#0 924607337#1 924607337#2 924607337#3 924607337#4 615456195 615456193#0 615456193#1 615456193#2 615478345 615478344#0 615478344#1 368461882#0 368461882#1 368461882#2 694268908 923261416 694268909#0 694268909#1 1176045778 82694445#0 82694445#1 82694445#2 1176045777 82694458#0 82694458#1 575729552#0 575729552#1 4086429 4332731 745183365#0 -575729108#4 -575729108#3 -575729108#2 -575729108#1 -575729555 -940627086 -4332734#7 -4332734#6 -4332734#5 -4332734#4 -4332734#3 -4332734#2 -4332734#1 -4332734#0 -4478182 -48630242#3 -48630242#2 -48630242#1 4243614#1 685156794#0 685156794#1 706706674#0 820063579#0 820063579#1 24247758#0 24247758#1 24247758#2" />
    </vehicle>
    <vehicle id="bicycle3_32" type="bicycle" depart="1028.57">
        <route edges="5019952#1 5019952#2 704746731#2 704746731#3 1171640558 20816626#0 20816626#1 310627474#0 310627474#1 310627474#2 310627474#3 310627474#4 310627474#7 1074607188 940612553 757990561 121188638 126342421 136822570 757990562 136822575 136822580#0 136822580#1 136822580#2 136822580#3 295073752#0 136822587#0 136822587#1 136822587#2 136822587#3 161754855#0 161754855#1 917450547#0 917450547#2 402897988#1 917450544#0 917450544#1 917450544#2 1112806233-AddedOnRampEdge 1112806233 4588647#0 4588647#3 4588647#4 4588647#5 1076442002 1018627464 4258656#0 4258656#1 4258656#2 4258656#4 729164042#1 805198994#0 805198994#1 329609972#0 329609972#1 729164041#0 729164041#1 820063578#0 820063578#1 48630242#1 48630242#2 48630242#3 4478182 4332734#0 4332734#1 4332734#2 4332734#3 4332734#4 4332734#5 4332734#6 4332734#7 940627086 575729555 575729108#1 575729108#2 575729108#3 575729108#4 745183363 745183362 745183364#0 745183364#1 745183364#2 -82694458#1 -82694458#0 -1176045777 -82694445#2 -82694445#1 -82694445#0 -1176045778 -694268909#1 -694268909#0 -923261416 -694268908 -368461882#2 -368461882#1 -368461882#0 -615478344#1 -615478344#0 -615478345 -615456193#2 -615456193#1 -615456193#0 154644778#0 154644778#1 -924607337#4 -924607337#3 -924607337#2 -924607337#1 -924607337#0 -924607338 -303412427#19 -303412427#18 -303412427#17 -303412427#16 -303412427#15 -303412427#14 -303412427#13 -303412427#12 -303412427#11 -303412427#10 -303412427#9 -303412427#8 -303412427#7 -303412427#6 -303412427#5 -303412427#4 -303412427#3 -303412427#2 -303412427#1 -303412427#0 303412433#0 -303412430 303412430" />
    </vehicle>
    <vehicle id="bicycle3_33" type="bicycle" depart="1060.71">
        <route edges="-28788664#1 -28788664#0 -38426188 -126342420#4 -126342420#3 -126342420#2 -126342420#1 -126342420#0 126342428 799741447#0 118784832#0 118784832#1 757990562 136822575 136822580#0 136822580#1 136822580#2 136822580#3 295073752#0 136822587#0 136822587#1 136822587#2 136822587#3 161754855#0 161754855#1 917450547#0 917450547#2 402897988#1 917450544#0 917450544#1 917450544#2 1112806233-AddedOnRampEdge 1112806233 -917450542 1174874706 -1182394701" />
    </vehicle>
    <vehicle id="bicycle3_34" type="bicycle" depart="1092.86">
        <route edges="-575729555 575729555 575729108#1 575729108#2 575729108#3 575729108#4 745183363 745183362 745183364#0 745183364#1 745183364#2 -82694458#1 -82694458#0 -1176045777 -82694445#2 -82694445#1 -82694445#0 -1176045778 -694268909#1 -694268909#0 -923261416 -694268908 -368461882#2 -368461882#1 -368461882#0 -615478344#1 -615478344#0 -615478345 -615456193#2 -615456193#1 -615456193#0 154644778#0 154644778#1 -924607337#4 -924607337#3 -924607337#2 -924607337#1 -924607337#0 -924607338 -303412427#19 -303412427#18 -303412427#17 -303412427#16 -303412427#15 -303412427#14 -303412427#13 -303412427#12 -303412427#11 -303412427#10 -303412427#9 -303412427#8 -303412427#7 -303412427#6 -303412427#5 -303412427#4 -303412427#3 -303412427#2 -303412427#1 -303412427#0 303412433#0 -303412430" />
    </vehicle>
    <vehicle id="bicycle3_35" type="bicycle" depart="1125.00">
        <route edges="-255984629#2 -255984629#1 -255984629#0 4588647#3 4588647#4 4588647#5 1076442002 1018627464 4258656#0 4258656#1 4258656#2 4258656#4 729164042#1 805198994#0 805198994#1 329609972#0 329609972#1 729164041#0 729164041#1 820063578#0 820063578#1 48630242#1 48630242#2 48630242#3 4478182 4332734#0 4332734#1 4332734#2 4332734#3 4332734#4 4332734#5 4332734#6 4332734#7 940627086 575729555 575729108#1 575729108#2 575729108#3 575729108#4 745183363 745183362 745183364#0 745183364#1 745183364#2 -82694458#1 -82694458#0 -1176045777 -82694445#2 -82694445#1 -82694445#0 82694445#0 82694445#1" />
    </vehicle>
    <vehicle id="bicycle3_36" type="bicycle" depart="1157.14">
        <route edges="615478345 615478344#0 615478344#1 368461882#0 368461882#1 368461882#2 -368461882#2 -368461882#1 -368461882#0 -615478344#1 -615478344#0 -615478345 -615456193#2" />
    </vehicle>
    <vehicle id="bicycle3_37" type="bicycle" depart="1189.29">
        <route edges="22751216#5 820063582#0 820063582#1 945948203 54338767#0 54338767#1 54338767#2 1072039865#1 704746731#0 704746731#2 704746731#3 1171640558 20816626#0 20816626#1 310627474#0 310627474#1 310627474#2 310627474#3 310627474#4 310627474#7 1074607188 940612553 757990561 121188638 126342421 136822570 757990562 136822575 136822580#0 136822580#1 136822580#2 136822580#3 295073752#0 136822587#0 136822587#1 136822587#2 136822587#3 161754855#0 161754855#1 917450547#0 917450547#2 402897988#1 917450544#0 917450544#1 917450544#2 1112806233-AddedOnRampEdge 1112806233 4588647#0 4588647#3 4588647#4 4588647#5 1076442002 1018627464 4258656#0 4258656#1 4258656#2 4258656#4 729164042#1 805198994#0 805198994#1 329609972#0 329609972#1 729164041#0 729164041#1 820063578#0 820063578#1 48630242#1 48630242#2 48630242#3 4478182 4332734#0 4332734#1 4332734#2 4332734#3 4332734#4 4332734#5 4332734#6 4332734#7 940627086 575729555 575729108#1 575729108#2 575729108#3 575729108#4 745183363 745183362 745183364#0 745183364#1 745183364#2 -82694458#1 -82694458#0 -1176045777 -82694445#2 -82694445#1 -82694445#0 -1176045778 -694268909#1 -694268909#0 -923261416 -694268908 -368461882#2 -368461882#1 -368461882#0 -615478344#1 -615478344#0 -615478345 -615456193#2 -615456193#1 -615456193#0 154644778#0 154644778#1 -924607337#4 -924607337#3 -924607337#2 -924607337#1 -924607337#0 -924607338 -303412427#19 -303412427#18 -303412427#17 -303412427#16 -303412427#15 -303412427#14 -303412427#13 -303412427#12 -303412427#11 -303412427#10 -303412427#9 -303412427#8 -303412427#7 -303412427#6 -303412427#5 -303412427#4 -303412427#3 -303412427#2 -303412427#1 -303412427#0 303412433#0 -303412430 -820063576 -303412428#2 1069841143#1 1069841143#2" />
    </vehicle>
    <vehicle id="bicycle3_38" type="bicycle" depart="1200.00">
        <route edges="799741449#1 925826461 369686016#1 369686016#2 126342428 799741447#0 118784832#0 118784832#1 757990562 136822575 136822580#0 136822580#1 136822580#2 136822580#3 295073752#0 136822587#0 136822587#1 136822587#2 136822587#3 161754855#0 161754855#1 917450547#0 917450547#2 402897988#1 32981461 775437708 917450543 161754857#0 161754857#1 -107396685#7 -107396685#6 -107396685#5 -107396685#4 -107396685#3 -107396685#2 -107396685#1 1193896447" />
    </vehicle>
    <vehicle id="bicycle3_39" type="bicycle" depart="1232.14">
        <route edges="-303412427#2 -303412427#1 -303412427#0 -29377703#4 -29377703#3" />
    </vehicle>
    <vehicle id="bicycle3_40" type="bicycle" depart="1264.29">
        <route edges="15785441#1 15785441#2 -15785423#1 -15785423#0 29377703#0 29377703#1 29377703#2 29377703#3 29377703#4 303412427#0 303412427#1 303412427#2 303412427#3 303412427#4 303412427#5 303412427#6 -303412427#6 -303412427#5" />