<?xml version="1.0" encoding="UTF-8"?>

<!-- generated on 2024-10-01 22:56:48.046037 by randomTrips.py v1_19_0+0000-baa66a0f364
<configuration>
    <net-file value="trimmed.net.xml"/>
    <additional-files value="genericVehicle.xml"/>
    <route-file value="randomTrips_truck3.rou.xml"/>
    <trip-attributes value="type='truck'"/>
    <insertion-rate value="100.0 100.0 100.0"/>
</configuration>
-->

<routes xmlns:xsi="http://www.w3.org/2001/XMLSchema-instance" xsi:noNamespaceSchemaLocation="http://sumo.dlr.de/xsd/routes_file.xsd">
    <trip id="0" depart="0.00" from="187486755#0" to="-1076442002" type='truck'/>
    <trip id="1" depart="36.00" from="-303412434" to="-28788646#0" type='truck'/>
    <trip id="2" depart="72.00" from="29170622#2" to="24164967#1" type='truck'/>
    <trip id="3" depart="108.00" from="704746731#0" to="-15785439#4" type='truck'/>
    <trip id="4" depart="144.00" from="1074607188" to="-1110672544" type='truck'/>
    <trip id="5" depart="180.00" from="-28343787#0" to="126350685#3" type='truck'/>
    <trip id="6" depart="216.00" from="-1076360289" to="-24248490" type='truck'/>
    <trip id="7" depart="252.00" from="22729816" to="15785418#1" type='truck'/>
    <trip id="8" depart="288.00" from="-28343791#0" to="160192350#1" type='truck'/>
    <trip id="9" depart="324.00" from="421767353#3" to="-1068885503#1" type='truck'/>
    <trip id="10" depart="360.00" from="418206264" to="24248441#0" type='truck'/>
    <trip id="11" depart="396.00" from="-825090424#2" to="-191549817" type='truck'/>
    <trip id="12" depart="432.00" from="894595931" to="-825090424#2" type='truck'/>
    <trip id="13" depart="468.00" from="-15785441#4" to="-15785450#2" type='truck'/>
    <trip id="14" depart="504.00" from="54338767#1" to="16174062#3" type='truck'/>
    <trip id="15" depart="540.00" from="421767353#0" to="28788650#0" type='truck'/>
    <trip id="16" depart="576.00" from="154644806#0" to="917450546#0" type='truck'/>
    <trip id="17" depart="612.00" from="-960721731#3" to="15785426" type='truck'/>
    <trip id="18" depart="648.00" from="4588648#0" to="176435844#3" type='truck'/>
    <trip id="19" depart="684.00" from="575729108#1" to="15785467" type='truck'/>
    <trip id="20" depart="720.00" from="24509303#3" to="-12255029#0" type='truck'/>
    <trip id="21" depart="756.00" from="-28788646#1" to="-4588647#0" type='truck'/>
    <trip id="22" depart="792.00" from="-15785418#7" to="-29170628#1" type='truck'/>
    <trip id="23" depart="828.00" from="-15785450#5" to="-368461882#1" type='truck'/>
    <trip id="24" depart="864.00" from="182972260" to="-925826461" type='truck'/>
    <trip id="25" depart="900.00" from="-925826461" to="-255984631#0" type='truck'/>
    <trip id="26" depart="936.00" from="-303412427#4" to="825090434#2" type='truck'/>
    <trip id="27" depart="972.00" from="20816626#0" to="161754855#0" type='truck'/>
    <trip id="28" depart="1008.00" from="-22751310#2" to="28788646#1" type='truck'/>
    <trip id="29" depart="1044.00" from="-22751216#3" to="1035321070#1" type='truck'/>
    <trip id="30" depart="1080.00" from="945948203" to="187486755#2" type='truck'/>
    <trip id="31" depart="1116.00" from="15785439#1" to="24247758#2" type='truck'/>
    <trip id="32" depart="1152.00" from="5019952#1" to="303412430" type='truck'/>
    <trip id="33" depart="1188.00" from="-28788664#1" to="-1182394701" type='truck'/>
    <trip id="34" depart="1200.00" from="-575729555" to="-303412430" type='truck'/>
    <trip id="35" depart="1236.00" from="-255984629#2" to="82694445#1" type='truck'/>
    <trip id="36" depart="1272.00" from="615478345" to="-615456193#2" type='truck'/>
    <trip id="37" depart="1308.00" from="22751216#5" to="1069841143#2" type='truck'/>
    <trip id="38" depart="1344.00" from="799741449#1" to="1193896447" type='truck'/>
    <trip id="39" depart="1380.00" from="-303412427#2" to="-29377703#3" type='truck'/>
    <trip id="40" depart="1416.00" from="15785441#1" to="-303412427#5" type='truck'/>
    <trip id="41" depart="1452.00" from="160192335" to="71942407" type='truck'/>
    <trip id="42" depart="1488.00" from="1069841143#2" to="-28404072#0" type='truck'/>
    <trip id="43" depart="1524.00" from="9495525" to="136822571#2" type='truck'/>
    <trip id="44" depart="1560.00" from="-15785441#1" to="-12255066#1" type='truck'/>
    <trip id="45" depart="1596.00" from="-15785493" to="176458040" type='truck'/>
    <trip id="46" depart="1632.00" from="34544814#1" to="1074829257#0" type='truck'/>
    <trip id="47" depart="1668.00" from="-132686162" to="1035321071#1" type='truck'/>
    <trip id="48" depart="1704.00" from="9495515#2" to="150158647#1" type='truck'/>
    <trip id="49" depart="1740.00" from="917450545" to="563391736#2" type='truck'/>
    <trip id="50" depart="1776.00" from="-1069841143#2" to="28347151#0" type='truck'/>
    <trip id="51" depart="1812.00" from="24247741" to="154644806#2" type='truck'/>
    <trip id="52" depart="1848.00" from="-303412427#4" to="187486755#3" type='truck'/>
    <trip id="53" depart="1884.00" from="-15833743#1" to="1085338842" type='truck'/>
    <trip id="54" depart="1920.00" from="118783734#2" to="8598773#3" type='truck'/>
    <trip id="55" depart="1956.00" from="615478345" to="-303412427#6" type='truck'/>
    <trip id="56" depart="1992.00" from="126342429" to="-24158358#5" type='truck'/>
    <trip id="57" depart="2028.00" from="799741448" to="615456195" type='truck'/>
    <trip id="58" depart="2064.00" from="-48627096#1" to="187486755#0" type='truck'/>
    <trip id="59" depart="2100.00" from="161754854#2" to="-187486758#5" type='truck'/>
    <trip id="60" depart="2136.00" from="303412427#11" to="154644806#5" type='truck'/>
    <trip id="61" depart="2172.00" from="303412433#1" to="154644771#0" type='truck'/>
    <trip id="62" depart="2208.00" from="-1019463922" to="-694268909#1" type='truck'/>
    <trip id="63" depart="2244.00" from="-107396685#1" to="820063587#0" type='truck'/>
    <trip id="64" depart="2280.00" from="675865742#0" to="4588648#2" type='truck'/>
    <trip id="65" depart="2316.00" from="-563377895#1" to="-126342423#2" type='truck'/>
    <trip id="66" depart="2352.00" from="666206774" to="832779574#1" type='truck'/>
    <trip id="67" depart="2388.00" from="-15785436#1" to="12255025#2" type='truck'/>
    <trip id="68" depart="2400.00" from="-154644806#4" to="303412427#0" type='truck'/>
    <trip id="69" depart="2436.00" from="303412427#15" to="-16174062#3" type='truck'/>
    <trip id="70" depart="2472.00" from="1216781217" to="15785423#0" type='truck'/>
    <trip id="71" depart="2508.00" from="-303412427#2" to="615478343#0" type='truck'/>
    <trip id="72" depart="2544.00" from="1074607189#0" to="-262235006" type='truck'/>
    <trip id="73" depart="2580.00" from="154644806#5" to="28788650#0" type='truck'/>
    <trip id="74" depart="2616.00" from="-24248441#1" to="-575729555" type='truck'/>
    <trip id="75" depart="2652.00" from="9495515#1" to="22751162" type='truck'/>
    <trip id="76" depart="2688.00" from="1110672544" to="136822587#0" type='truck'/>
    <trip id="77" depart="2724.00" from="-160192360#0" to="-28788664#0" type='truck'/>
    <trip id="78" depart="2760.00" from="-820063588" to="160192343#6" type='truck'/>
    <trip id="79" depart="2796.00" from="-28788664#2" to="-28404072#1" type='truck'/>
    <trip id="80" depart="2832.00" from="-154644806#6" to="178592044#0" type='truck'/>
    <trip id="81" depart="2868.00" from="-28788664#1" to="757990561" type='truck'/>
    <trip id="82" depart="2904.00" from="563391736#0" to="-154644810#1" type='truck'/>
    <trip id="83" depart="2940.00" from="-29170656#1" to="24158358#1" type='truck'/>
    <trip id="84" depart="2976.00" from="-255984631#1" to="-175374037" type='truck'/>
    <trip id="85" depart="3012.00" from="825090434#0" to="15785450#4" type='truck'/>
    <trip id="86" depart="3048.00" from="1216781214#0" to="32527596" type='truck'/>
    <trip id="87" depart="3084.00" from="421767353#0" to="-24247933" type='truck'/>
    <trip id="88" depart="3120.00" from="-15785444#1" to="1077826847" type='truck'/>
    <trip id="89" depart="3156.00" from="1074607189#1" to="119883577#9" type='truck'/>
    <trip id="90" depart="3192.00" from="28788646#1" to="24158358#6" type='truck'/>
    <trip id="91" depart="3228.00" from="940612553" to="-15785450#5" type='truck'/>
    <trip id="92" depart="3264.00" from="1069841149" to="-82694037#0" type='truck'/>
    <trip id="93" depart="3300.00" from="575729108#1" to="-29378777#3" type='truck'/>
    <trip id="94" depart="3336.00" from="-24247764#0" to="1171640558" type='truck'/>
    <trip id="95" depart="3372.00" from="1074607188" to="-368461882#2" type='truck'/>
    <trip id="96" depart="3408.00" from="-29377703#2" to="820063579#1" type='truck'/>
    <trip id="97" depart="3444.00" from="1148489399#2" to="575729108#1" type='truck'/>
    <trip id="98" depart="3480.00" from="15785418#7" to="-126342417#0" type='truck'/>
    <trip id="99" depart="3516.00" from="9867184" to="48630242#2" type='truck'/>
    <trip id="100" depart="3552.00" from="917450544#0" to="820063584" type='truck'/>
    <trip id="101" depart="3588.00" from="54338767#2" to="-22751307#0" type='truck'/>
</routes>
