<?xml version="1.0" encoding="UTF-8"?>

<!-- generated on 2024-07-04 20:43:57.852327 by randomTrips.py v1_19_0+0000-baa66a0f364
<configuration>
    <net-file value="fullroute.net.xml"/>
    <additional-files value="genericVehicle.xml"/>
    <route-file value="randomTrips_car.rou.xml"/>
    <trip-attributes value="type='car'"/>
    <end value="10000.0"/>
    <insertion-rate value="170.0 170.0 170.0"/>
</configuration>
-->

<routes xmlns:xsi="http://www.w3.org/2001/XMLSchema-instance" xsi:noNamespaceSchemaLocation="http://sumo.dlr.de/xsd/routes_file.xsd">
    <trip id="0" depart="0.00" from="23784738#2" to="-10853062#3" type='car'/>
    <trip id="1" depart="21.18" from="-548314354" to="-29377703#3" type='car'/>
    <trip id="2" depart="42.35" from="332100657#6" to="27323187#3" type='car'/>
    <trip id="3" depart="63.53" from="806249277#2" to="-154837034#2" type='car'/>
    <trip id="4" depart="84.71" from="107396684#1" to="-1111947800#0" type='car'/>
    <trip id="5" depart="105.88" from="-29169513#1" to="137055699#3" type='car'/>
    <trip id="6" depart="127.06" from="-10853062#2" to="-27276538#5" type='car'/>
    <trip id="7" depart="148.24" from="24164733" to="15785466" type='car'/>
    <trip id="8" depart="169.41" from="-29170628#0" to="176435844#6" type='car'/>
    <trip id="9" depart="190.59" from="592221046#1" to="-1067761767#2" type='car'/>
    <trip id="10" depart="211.76" from="575729108#3" to="29169527#0" type='car'/>
    <trip id="11" depart="232.94" from="-8598773#3" to="-22751222#1" type='car'/>
    <trip id="12" depart="254.12" from="904980039#1" to="-8652887#2" type='car'/>
    <trip id="13" depart="275.29" from="-154837043" to="-15785439#1" type='car'/>
    <trip id="14" depart="296.47" from="697708631" to="183689345#0" type='car'/>
    <trip id="15" depart="317.65" from="583421939" to="32527595#7" type='car'/>
    <trip id="16" depart="338.82" from="156307521#0" to="923261417#1" type='car'/>
    <trip id="17" depart="360.00" from="-9495769#0" to="15833850#5" type='car'/>
    <trip id="18" depart="381.18" from="643170219" to="22694403" type='car'/>
    <trip id="19" depart="402.35" from="741799316#1" to="161754854#2" type='car'/>
    <trip id="20" depart="423.53" from="29254951#0" to="-12254923#3" type='car'/>
    <trip id="21" depart="444.71" from="-29378777#0" to="-643170217#1" type='car'/>
    <trip id="22" depart="465.88" from="-150158651#3" to="-303412430" type='car'/>
    <trip id="23" depart="487.06" from="-15785441#2" to="-573429038#0" type='car'/>
    <trip id="24" depart="508.24" from="23296582#4" to="-917970208" type='car'/>
    <trip id="25" depart="529.41" from="-91845515" to="-28596316#1" type='car'/>
    <trip id="26" depart="550.59" from="-4478182" to="879147763#1" type='car'/>
    <trip id="27" depart="571.76" from="24158463#0" to="186866770" type='car'/>
    <trip id="28" depart="592.94" from="-23784738#2" to="32527595#4" type='car'/>
    <trip id="29" depart="614.12" from="-22751838#4" to="-9867087#2" type='car'/>
    <trip id="30" depart="635.29" from="97073858#4" to="24158218#2" type='car'/>
    <trip id="31" depart="656.47" from="158627309#2" to="28347490#0" type='car'/>
    <trip id="32" depart="677.65" from="693141378#3" to="4637707#0" type='car'/>
    <trip id="33" depart="698.82" from="-29379132#0" to="-1123244161#0" type='car'/>
    <trip id="34" depart="720.00" from="-771317202#0" to="-5019469#0" type='car'/>
    <trip id="35" depart="741.18" from="-28404072#0" to="894430767#0" type='car'/>
    <trip id="36" depart="762.35" from="780755505#1" to="-796523193" type='car'/>
    <trip id="37" depart="783.53" from="24247741" to="1066216974" type='car'/>
    <trip id="38" depart="804.71" from="833362285#0" to="1193500038#0" type='car'/>
    <trip id="39" depart="825.88" from="-4332734#6" to="-34545208#1" type='car'/>
    <trip id="40" depart="847.06" from="160192335" to="-444541477#3" type='car'/>
    <trip id="41" depart="868.24" from="16354221#3" to="820063582#1" type='car'/>
    <trip id="42" depart="889.41" from="1066216972" to="-29254951#0" type='car'/>
    <trip id="43" depart="910.59" from="9868998#10" to="13866859#8" type='car'/>
    <trip id="44" depart="931.76" from="-154837039#3" to="-12255025#2" type='car'/>
    <trip id="45" depart="952.94" from="-15833833#1" to="22751838#2" type='car'/>
    <trip id="46" depart="974.12" from="54338767#2" to="1074957742" type='car'/>
    <trip id="47" depart="995.29" from="-131714152#4" to="-9867771#6" type='car'/>
    <trip id="48" depart="1016.47" from="9867771#1" to="154837039#6" type='car'/>
    <trip id="49" depart="1037.65" from="921177972#2" to="741799316#1" type='car'/>
    <trip id="50" depart="1058.82" from="-1069134650#0" to="309585111#1" type='car'/>
    <trip id="51" depart="1080.00" from="27650805#1" to="15785418#2" type='car'/>
    <trip id="52" depart="1101.18" from="-4478182" to="24158225#3" type='car'/>
    <trip id="53" depart="1122.35" from="-15833850#4" to="10853055" type='car'/>
    <trip id="54" depart="1143.53" from="1148489399#0" to="904660166#3" type='car'/>
    <trip id="55" depart="1164.71" from="776059141" to="-4588647#3" type='car'/>
    <trip id="56" depart="1185.88" from="136822575" to="-24164989#2" type='car'/>
    <trip id="57" depart="1207.06" from="832779572#3" to="771317202#2" type='car'/>
    <trip id="58" depart="1228.24" from="-675770223#1" to="24158210#3" type='car'/>
    <trip id="59" depart="1249.41" from="185227306#1" to="-22748963#5" type='car'/>
    <trip id="60" depart="1270.59" from="409263833" to="15785436#0" type='car'/>
    <trip id="61" depart="1291.76" from="4637707#1" to="154837042#3" type='car'/>
    <trip id="62" depart="1312.94" from="-1018359441" to="-82694042#4" type='car'/>
    <trip id="63" depart="1334.12" from="-1076442002" to="8652887#1" type='car'/>
    <trip id="64" depart="1355.29" from="787332301" to="673787481" type='car'/>
    <trip id="65" depart="1376.47" from="-700489177" to="-126342424#4" type='car'/>
    <trip id="66" depart="1397.65" from="784737615" to="895559286#2" type='car'/>
    <trip id="67" depart="1418.82" from="-154644797#1" to="126342421" type='car'/>
    <trip id="68" depart="1440.00" from="-133452689#6" to="415765424" type='car'/>
    <trip id="69" depart="1461.18" from="420657996" to="-171771156#1" type='car'/>
    <trip id="70" depart="1482.35" from="12254923#3" to="15833833#0" type='car'/>
    <trip id="71" depart="1503.53" from="-4332734#7" to="771367204#0" type='car'/>
    <trip id="72" depart="1524.71" from="107396685#3" to="-28788664#2" type='car'/>
    <trip id="73" depart="1545.88" from="156307559#1" to="32527595#8" type='car'/>
    <trip id="74" depart="1567.06" from="-27276463#5" to="-771352866" type='car'/>
    <trip id="75" depart="1588.24" from="9867092#2" to="24164989#3" type='car'/>
    <trip id="76" depart="1609.41" from="10852972#3" to="150867914#1" type='car'/>
    <trip id="77" depart="1630.59" from="-160192356" to="-29378777#5" type='car'/>
    <trip id="78" depart="1651.76" from="-846779440#1" to="176435844#0" type='car'/>
    <trip id="79" depart="1672.94" from="-29379179#1" to="-29255098#1" type='car'/>
    <trip id="80" depart="1694.12" from="-137055696#14" to="23296573#4" type='car'/>
    <trip id="81" depart="1715.29" from="-29378777#5" to="82694042#3" type='car'/>
    <trip id="82" depart="1736.47" from="729164041#1" to="-137055696#6" type='car'/>
    <trip id="83" depart="1757.65" from="-303412433#1" to="26601207" type='car'/>
    <trip id="84" depart="1778.82" from="-28755946" to="-176435844#6" type='car'/>
    <trip id="85" depart="1800.00" from="879147760#1" to="16081568#1" type='car'/>
    <trip id="86" depart="1821.18" from="1216781218" to="5055419#0" type='car'/>
    <trip id="87" depart="1842.35" from="583441086" to="-255984631#0" type='car'/>
    <trip id="88" depart="1863.53" from="-15785418#2" to="1085248940" type='car'/>
    <trip id="89" depart="1884.71" from="107396685#5" to="120497489#2" type='car'/>
    <trip id="90" depart="1905.88" from="32505399#2" to="27276496#0" type='car'/>
    <trip id="91" depart="1927.06" from="9495525" to="-15785441#4" type='car'/>
    <trip id="92" depart="1948.24" from="1066220808#2" to="-879147757#0" type='car'/>
    <trip id="93" depart="1969.41" from="741799316#1" to="-368461882#2" type='car'/>
    <trip id="94" depart="1990.59" from="-24509080#1" to="112450954#0" type='car'/>
    <trip id="95" depart="2011.76" from="107396683" to="-573461192" type='car'/>
    <trip id="96" depart="2032.94" from="-34544780#1" to="85933466#0" type='car'/>
    <trip id="97" depart="2054.12" from="1088187917" to="741799317" type='car'/>
    <trip id="98" depart="2075.29" from="15785495#9" to="-124013055#2" type='car'/>
    <trip id="99" depart="2096.47" from="990608181" to="683046783#2" type='car'/>
    <trip id="100" depart="2117.65" from="917970208" to="8598858#1" type='car'/>
    <trip id="101" depart="2138.82" from="700489178" to="-23784359" type='car'/>
    <trip id="102" depart="2160.00" from="126337545#2" to="-28829850#1" type='car'/>
    <trip id="103" depart="2181.18" from="1066220806" to="-131706175#0" type='car'/>
    <trip id="104" depart="2202.35" from="-9495769#3" to="9495769#2" type='car'/>
    <trip id="105" depart="2223.53" from="-4350726#0" to="5055416#4" type='car'/>
    <trip id="106" depart="2244.71" from="1154970602" to="1076444719" type='car'/>
    <trip id="107" depart="2265.88" from="908375510" to="9867771#0" type='car'/>
    <trip id="108" depart="2287.06" from="158627301#0" to="303412430" type='car'/>
    <trip id="109" depart="2308.24" from="-22673864#0" to="-691612299#4" type='car'/>
    <trip id="110" depart="2329.41" from="917618538" to="16268780" type='car'/>
    <trip id="111" depart="2350.59" from="15785430#1" to="370191609#2" type='car'/>
    <trip id="112" depart="2371.76" from="-126337537#1" to="163844197#0" type='car'/>
    <trip id="113" depart="2392.94" from="136822587#3" to="713599163" type='car'/>
    <trip id="114" depart="2414.12" from="-22751216#0" to="9160143#0" type='car'/>
    <trip id="115" depart="2435.29" from="-150867896#10" to="-24509080#0" type='car'/>
    <trip id="116" depart="2456.47" from="176438183" to="27276538#4" type='car'/>
    <trip id="117" depart="2477.65" from="-303412427#19" to="-160192369#1" type='car'/>
    <trip id="118" depart="2498.82" from="805198999" to="-34544811#0" type='car'/>
    <trip id="119" depart="2520.00" from="176438182#0" to="22748963#2" type='car'/>
    <trip id="120" depart="2541.18" from="1072780237" to="163844182#2" type='car'/>
    <trip id="121" depart="2562.35" from="150867937#0" to="879147760#0" type='car'/>
    <trip id="122" depart="2583.53" from="-27323189#3" to="303412427#19" type='car'/>
    <trip id="123" depart="2604.71" from="-30678855#1" to="1066216975#0" type='car'/>
    <trip id="124" depart="2625.88" from="2667111#1" to="-694268908" type='car'/>
    <trip id="125" depart="2647.06" from="-771352866" to="379389868#7" type='car'/>
    <trip id="126" depart="2668.24" from="-137055696#23" to="1192535484#2" type='car'/>
    <trip id="127" depart="2689.41" from="9868998#4" to="9867771#3" type='car'/>
    <trip id="128" depart="2710.59" from="-137055696#4" to="-28788771#7" type='car'/>
    <trip id="129" depart="2731.76" from="-4350726#0" to="879147758#3" type='car'/>
    <trip id="130" depart="2752.94" from="795146860#1" to="795131675" type='car'/>
    <trip id="131" depart="2774.12" from="-917281126#3" to="-22751830#1" type='car'/>
    <trip id="132" depart="2795.29" from="674854148#1" to="29255098#3" type='car'/>
    <trip id="133" depart="2816.47" from="186722561#1" to="961977255#0" type='car'/>
    <trip id="134" depart="2837.65" from="24247087#3" to="-1068124662" type='car'/>
    <trip id="135" depart="2858.82" from="624159303" to="-693141379#1" type='car'/>
    <trip id="136" depart="2880.00" from="24509353" to="89416992#5" type='car'/>
    <trip id="137" depart="2901.18" from="-175374037" to="-160192343#2" type='car'/>
    <trip id="138" depart="2922.35" from="-15785495#7" to="158627301#0" type='car'/>
    <trip id="139" depart="2943.53" from="-5055419#0" to="184031600" type='car'/>
    <trip id="140" depart="2964.71" from="303412427#17" to="-27768033#1" type='car'/>
    <trip id="141" depart="2985.88" from="23296577#0" to="-4637643#0" type='car'/>
    <trip id="142" depart="3007.06" from="126342423#1" to="82694042#3" type='car'/>
    <trip id="143" depart="3028.24" from="694661265" to="-156307556#1" type='car'/>
    <trip id="144" depart="3049.41" from="107396685#5" to="-563377900" type='car'/>
    <trip id="145" depart="3070.59" from="-105691112#2" to="444541477#3" type='car'/>
    <trip id="146" depart="3091.76" from="23296597#0" to="-4350727#1" type='car'/>
    <trip id="147" depart="3112.94" from="34545208#0" to="15833850#3" type='car'/>
    <trip id="148" depart="3134.12" from="1076913652#1" to="-1069128938" type='car'/>
    <trip id="149" depart="3155.29" from="-137055699#5" to="799533699" type='car'/>
    <trip id="150" depart="3176.47" from="825090442#1" to="15785471#1" type='car'/>
    <trip id="151" depart="3197.65" from="675770225#1" to="16354304#2" type='car'/>
    <trip id="152" depart="3218.82" from="-185227314#1" to="-16354264#0" type='car'/>
    <trip id="153" depart="3240.00" from="-706706677#1" to="820063587#1" type='car'/>
    <trip id="154" depart="3261.18" from="555383298#6" to="741799316#1" type='car'/>
    <trip id="155" depart="3282.35" from="820063582#0" to="-28755948" type='car'/>
    <trip id="156" depart="3303.53" from="-34544780#0" to="-15785495#2" type='car'/>
    <trip id="157" depart="3324.71" from="472471257#1" to="799533706" type='car'/>
    <trip id="158" depart="3333.33" from="1067761766#0" to="22751162" type='car'/>
    <trip id="159" depart="3354.51" from="-223237409" to="8652892#1" type='car'/>
    <trip id="160" depart="3375.69" from="745787646#0" to="930545603" type='car'/>
    <trip id="161" depart="3396.86" from="603213627" to="7980873#0" type='car'/>
    <trip id="162" depart="3418.04" from="-10852915#8" to="333199725" type='car'/>
    <trip id="163" depart="3439.22" from="-832779568#1" to="8652901" type='car'/>
    <trip id="164" depart="3460.39" from="563387014" to="745787646#1" type='car'/>
    <trip id="165" depart="3481.57" from="603213627" to="-48630242#1" type='car'/>
    <trip id="166" depart="3502.75" from="5055419#1" to="-15833850#3" type='car'/>
    <trip id="167" depart="3523.92" from="771352866" to="729164041#1" type='car'/>
    <trip id="168" depart="3545.10" from="-29170675#1" to="634092846#1" type='car'/>
    <trip id="169" depart="3566.27" from="118783741#1" to="-71941270" type='car'/>
    <trip id="170" depart="3587.45" from="555383298#2" to="-302778227#0" type='car'/>
    <trip id="171" depart="3608.63" from="-10852915#1" to="-262234278" type='car'/>
    <trip id="172" depart="3629.80" from="-82694037#1" to="745787649#0" type='car'/>
    <trip id="173" depart="3650.98" from="917450542" to="-575729108#2" type='car'/>
    <trip id="174" depart="3672.16" from="24158210#6" to="1066220808#8" type='car'/>
    <trip id="175" depart="3693.33" from="945948199" to="156307559#0" type='car'/>
    <trip id="176" depart="3714.51" from="89416981" to="-160192343#2" type='car'/>
    <trip id="177" depart="3735.69" from="921177970" to="-24164989#2" type='car'/>
    <trip id="178" depart="3756.86" from="9160651#1" to="-46503500" type='car'/>
    <trip id="179" depart="3778.04" from="-15833814#1" to="10853045" type='car'/>
    <trip id="180" depart="3799.22" from="32139370#0" to="-795119607" type='car'/>
    <trip id="181" depart="3820.39" from="182994406#0" to="146694555#5" type='car'/>
    <trip id="182" depart="3841.57" from="-9867771#0" to="16174707#1" type='car'/>
    <trip id="183" depart="3862.75" from="-370826485" to="29378777#5" type='car'/>
    <trip id="184" depart="3883.92" from="-1018619052" to="8598773#0" type='car'/>
    <trip id="185" depart="3905.10" from="156307556#2" to="30678855#0" type='car'/>
    <trip id="186" depart="3926.27" from="34546107" to="27276111#1" type='car'/>
    <trip id="187" depart="3947.45" from="-904912310#1" to="-137055696#24" type='car'/>
    <trip id="188" depart="3968.63" from="24509412#3" to="-836645498" type='car'/>
    <trip id="189" depart="3989.80" from="-745787649#5" to="704746729#2" type='car'/>
    <trip id="190" depart="4010.98" from="303412428#0" to="-694268909#1" type='car'/>
    <trip id="191" depart="4032.16" from="-71940900#3" to="1069134649#3" type='car'/>
    <trip id="192" depart="4053.33" from="1066220808#0" to="-676492461" type='car'/>
    <trip id="193" depart="4074.51" from="-161271150#1" to="1074607189#0" type='car'/>
    <trip id="194" depart="4095.69" from="89416994#0" to="27323189#2" type='car'/>
    <trip id="195" depart="4116.86" from="825090434#1" to="20819402" type='car'/>
    <trip id="196" depart="4138.04" from="-691612299#0" to="15833743#0" type='car'/>
    <trip id="197" depart="4159.22" from="-1018359441" to="-642436141" type='car'/>
    <trip id="198" depart="4180.39" from="1077811777" to="16353995#1" type='car'/>
    <trip id="199" depart="4201.57" from="24247294#2" to="120495853#0" type='car'/>
    <trip id="200" depart="4222.75" from="1086958824#1" to="-28829850#1" type='car'/>
    <trip id="201" depart="4243.92" from="1219663090#1" to="825090431#1" type='car'/>
    <trip id="202" depart="4265.10" from="555383298#5" to="-24158218#3" type='car'/>
    <trip id="203" depart="4286.27" from="-150867936" to="150867896#15" type='car'/>
    <trip id="204" depart="4307.45" from="23296573#3" to="-8598773#3" type='car'/>
    <trip id="205" depart="4328.63" from="635716755" to="379389868#3" type='car'/>
    <trip id="206" depart="4349.80" from="27276111#1" to="-29378777#5" type='car'/>
    <trip id="207" depart="4370.98" from="-272720932" to="-10853055" type='car'/>
    <trip id="208" depart="4392.16" from="-32527595#2" to="123326750" type='car'/>
    <trip id="209" depart="4413.33" from="704746731#3" to="-137055701" type='car'/>
    <trip id="210" depart="4434.51" from="1069841144#0" to="22919121#3" type='car'/>
    <trip id="211" depart="4455.69" from="-255984630" to="28788771#7" type='car'/>
    <trip id="212" depart="4476.86" from="131714154#14" to="-332100657#6" type='car'/>
    <trip id="213" depart="4498.04" from="24247758#3" to="-1067761765#1" type='car'/>
    <trip id="214" depart="4519.22" from="370372821#1" to="435468253#0" type='car'/>
    <trip id="215" depart="4540.39" from="-15785495#5" to="1077700617#1" type='car'/>
    <trip id="216" depart="4561.57" from="-24158239#2" to="908668114#1" type='car'/>
    <trip id="217" depart="4582.75" from="150867896#13" to="-124013055#0" type='car'/>
    <trip id="218" depart="4603.92" from="-34366345#1" to="704746731#2" type='car'/>
    <trip id="219" depart="4625.10" from="1169533425" to="563391736#0" type='car'/>
    <trip id="220" depart="4646.27" from="256019242#0" to="963451908#1" type='car'/>
    <trip id="221" depart="4667.45" from="176438184#1" to="901491521#2" type='car'/>
    <trip id="222" depart="4688.63" from="806249268" to="187489436#0" type='car'/>
    <trip id="223" depart="4709.80" from="303412427#8" to="137055699#0" type='car'/>
    <trip id="224" depart="4730.98" from="643170756#5" to="15833742" type='car'/>
    <trip id="225" depart="4752.16" from="820063560#0" to="368461882#2" type='car'/>
    <trip id="226" depart="4773.33" from="12254923#0" to="-420658574#1" type='car'/>
    <trip id="227" depart="4794.51" from="-332100657#2" to="24158208#0" type='car'/>
    <trip id="228" depart="4815.69" from="420657996" to="154644771#3" type='car'/>
    <trip id="229" depart="4836.86" from="22751224#1" to="-556914933#6" type='car'/>
    <trip id="230" depart="4858.04" from="-13866861" to="-626683786" type='car'/>
    <trip id="231" depart="4879.22" from="-5019469#3" to="-820063586" type='car'/>
    <trip id="232" depart="4900.39" from="15785418#2" to="-176458064" type='car'/>
    <trip id="233" depart="4921.57" from="-29397305" to="28756024#2" type='car'/>
    <trip id="234" depart="4942.75" from="29257171#0" to="-131714156" type='car'/>
    <trip id="235" depart="4963.92" from="1068103211" to="15785444#2" type='car'/>
    <trip id="236" depart="4985.10" from="1069874348#0" to="-28404072#1" type='car'/>
    <trip id="237" depart="5006.27" from="107396681#5" to="82694042#0" type='car'/>
    <trip id="238" depart="5027.45" from="16354221#0" to="28788771#2" type='car'/>
    <trip id="239" depart="5048.63" from="71942401#5" to="4243614#1" type='car'/>
    <trip id="240" depart="5069.80" from="-961628341" to="-1067761765#3" type='car'/>
    <trip id="241" depart="5090.98" from="-894197955" to="395489245#2" type='car'/>
    <trip id="242" depart="5112.16" from="709096590" to="904645326#3" type='car'/>
    <trip id="243" depart="5133.33" from="1072400001" to="370191609#0" type='car'/>
    <trip id="244" depart="5154.51" from="15785450#4" to="182992394" type='car'/>
    <trip id="245" depart="5175.69" from="-29170628#0" to="-29254951#1" type='car'/>
    <trip id="246" depart="5196.86" from="10852915#6" to="-1090388062" type='car'/>
    <trip id="247" depart="5218.04" from="-8382241#2" to="27323203#0" type='car'/>
    <trip id="248" depart="5239.22" from="1066230416#1" to="-23296597#3" type='car'/>
    <trip id="249" depart="5260.39" from="120494978#1" to="-16354264#1" type='car'/>
    <trip id="250" depart="5281.57" from="22748963#1" to="-1086907966" type='car'/>
    <trip id="251" depart="5302.75" from="1035321070#2" to="160192360#2" type='car'/>
    <trip id="252" depart="5323.92" from="-10853062#5" to="24158239#5" type='car'/>
    <trip id="253" depart="5345.10" from="-176435844#6" to="119883577#7" type='car'/>
    <trip id="254" depart="5366.27" from="-12255066#0" to="-9867087#0" type='car'/>
    <trip id="255" depart="5387.45" from="-28404170#2" to="-832779567#2" type='car'/>
    <trip id="256" depart="5408.63" from="404567134#1" to="-9867087#0" type='car'/>
    <trip id="257" depart="5429.80" from="370826355#1" to="674167443" type='car'/>
    <trip id="258" depart="5450.98" from="-354449750" to="-150867922" type='car'/>
    <trip id="259" depart="5472.16" from="-1076442002" to="15785436#0" type='car'/>
    <trip id="260" depart="5493.33" from="99810162#1" to="-894472205#0" type='car'/>
    <trip id="261" depart="5514.51" from="24164743#1" to="5019469#4" type='car'/>
    <trip id="262" depart="5535.69" from="24164989#11" to="402902177" type='car'/>
    <trip id="263" depart="5556.86" from="901059728" to="-27276538#8" type='car'/>
    <trip id="264" depart="5578.04" from="-1076915315" to="-22748963#3" type='car'/>
    <trip id="265" depart="5599.22" from="-160192388#0" to="2667111#0" type='car'/>
    <trip id="266" depart="5620.39" from="160192343#5" to="-29170675#0" type='car'/>
    <trip id="267" depart="5641.57" from="28829850#3" to="4332734#0" type='car'/>
    <trip id="268" depart="5662.75" from="-23296584#3" to="185227314#1" type='car'/>
    <trip id="269" depart="5683.92" from="369832203#1" to="-160192342#1" type='car'/>
    <trip id="270" depart="5705.10" from="642404470#2" to="9160986#1" type='car'/>
    <trip id="271" depart="5726.27" from="-15833814#0" to="-10853062#6" type='car'/>
    <trip id="272" depart="5747.45" from="-741799320#1" to="27323189#2" type='car'/>
    <trip id="273" depart="5768.63" from="908668114#1" to="1066220805#0" type='car'/>
    <trip id="274" depart="5789.80" from="302778227#0" to="-146694561#2" type='car'/>
    <trip id="275" depart="5810.98" from="28462766#1" to="22751838#1" type='car'/>
    <trip id="276" depart="5832.16" from="-15785441#7" to="4483518#2" type='car'/>
    <trip id="277" depart="5853.33" from="704771884#1" to="17899147#1" type='car'/>
    <trip id="278" depart="5874.51" from="-160192356" to="9495520" type='car'/>
    <trip id="279" depart="5895.69" from="4970340#2" to="-894197956" type='car'/>
    <trip id="280" depart="5916.86" from="1076915316#0" to="-9495415#0" type='car'/>
    <trip id="281" depart="5938.04" from="137055696#25" to="-879147758#6" type='car'/>
    <trip id="282" depart="5959.22" from="704746731#2" to="643160792#2" type='car'/>
    <trip id="283" depart="5980.39" from="-15785493" to="9160143#0" type='car'/>
    <trip id="284" depart="6001.57" from="23296582#3" to="643170756#2" type='car'/>
    <trip id="285" depart="6022.75" from="29369535" to="10853062#3" type='car'/>
    <trip id="286" depart="6043.92" from="32775594" to="9163271#1" type='car'/>
    <trip id="287" depart="6065.10" from="-48627096#0" to="59346515" type='car'/>
    <trip id="288" depart="6086.27" from="156307556#0" to="126337545#2" type='car'/>
    <trip id="289" depart="6107.45" from="10852915#4" to="32775592#0" type='car'/>
    <trip id="290" depart="6128.63" from="-4637643#3" to="708734830" type='car'/>
    <trip id="291" depart="6149.80" from="643170756#6" to="-154837034#0" type='car'/>
    <trip id="292" depart="6170.98" from="795473374" to="-332100657#6" type='car'/>
    <trip id="293" depart="6192.16" from="119883577#7" to="187006815#4" type='car'/>
    <trip id="294" depart="6213.33" from="-9495769#3" to="-1089352610#0" type='car'/>
    <trip id="295" depart="6234.51" from="706105473" to="-24247305#1" type='car'/>
    <trip id="296" depart="6255.69" from="-28404193#0" to="557270461" type='car'/>
    <trip id="297" depart="6276.86" from="-8598858#1" to="795473374" type='car'/>
    <trip id="298" depart="6298.04" from="29170624#0" to="-563377895#1" type='car'/>
    <trip id="299" depart="6319.22" from="-1069128937" to="895559287#2" type='car'/>
    <trip id="300" depart="6340.39" from="-154644797#1" to="30678920#0" type='car'/>
    <trip id="301" depart="6361.57" from="126342423#2" to="404567134#0" type='car'/>
    <trip id="302" depart="6382.75" from="28462766#1" to="24158452" type='car'/>
    <trip id="303" depart="6403.92" from="126350685#3" to="555383298#0" type='car'/>
    <trip id="304" depart="6425.10" from="-154837045#1" to="-29374209#1" type='car'/>
    <trip id="305" depart="6446.27" from="28571891" to="-71942401#4" type='car'/>
    <trip id="306" depart="6467.45" from="161754857#0" to="12254923#6" type='car'/>
    <trip id="307" depart="6488.63" from="154837039#10" to="1077721638" type='car'/>
    <trip id="308" depart="6509.80" from="368461882#2" to="-8382241#1" type='car'/>
    <trip id="309" depart="6530.98" from="29170670#0" to="-552813990" type='car'/>
    <trip id="310" depart="6552.16" from="-35002847#2" to="-160192373#2" type='car'/>
    <trip id="311" depart="6573.33" from="-24509412#4" to="-160192369#0" type='car'/>
    <trip id="312" depart="6594.51" from="156307479#1" to="418206262#1" type='car'/>
    <trip id="313" depart="6615.69" from="-24247294#0" to="-29170628#1" type='car'/>
    <trip id="314" depart="6636.86" from="126337540" to="32003147#1" type='car'/>
    <trip id="315" depart="6658.04" from="931318687" to="154644810#3" type='car'/>
    <trip id="316" depart="6666.67" from="-573461192" to="-15785456#1" type='car'/>
    <trip id="317" depart="6687.84" from="-255984629#2" to="-302778226#0" type='car'/>
    <trip id="318" depart="6709.02" from="-24158463#1" to="-1069874353#0" type='car'/>
    <trip id="319" depart="6730.20" from="154837048#0" to="-556914933#4" type='car'/>
    <trip id="320" depart="6751.37" from="924607337#3" to="158627301#2" type='car'/>
    <trip id="321" depart="6772.55" from="28788669" to="-163534559" type='car'/>
    <trip id="322" depart="6793.73" from="751200332#0" to="131714152#4" type='car'/>
    <trip id="323" depart="6814.90" from="771367202#2" to="161306512" type='car'/>
    <trip id="324" depart="6836.08" from="120497489#0" to="1090956391" type='car'/>
    <trip id="325" depart="6857.25" from="-24247087#1" to="-12449345#1" type='car'/>
    <trip id="326" depart="6878.43" from="89416994#4" to="124013055#0" type='car'/>
    <trip id="327" depart="6899.61" from="643157900#6" to="1067675512" type='car'/>
    <trip id="328" depart="6920.78" from="-137055696#9" to="22919121#2" type='car'/>
    <trip id="329" depart="6941.96" from="-12448619" to="-189980441#0" type='car'/>
    <trip id="330" depart="6963.14" from="160192342#4" to="-714996420" type='car'/>
    <trip id="331" depart="6984.31" from="98114956#1" to="-160192360#1" type='car'/>
    <trip id="332" depart="7005.49" from="416894845" to="185227306#3" type='car'/>
    <trip id="333" depart="7026.67" from="54030025#1" to="-29379179#1" type='car'/>
    <trip id="334" depart="7047.84" from="150867936" to="1148489399#1" type='car'/>
    <trip id="335" depart="7069.02" from="1088060314#0" to="741799315#0" type='car'/>
    <trip id="336" depart="7090.20" from="97073858#7" to="-71942401#0" type='car'/>
    <trip id="337" depart="7111.37" from="22673864#0" to="187006815#1" type='car'/>
    <trip id="338" depart="7132.55" from="34544784" to="895559287#0" type='car'/>
    <trip id="339" depart="7153.73" from="-27650833" to="-28788646#0" type='car'/>
    <trip id="340" depart="7174.90" from="24248542" to="-22751310#0" type='car'/>
    <trip id="341" depart="7196.08" from="-24158218#3" to="-13866958#0" type='car'/>
    <trip id="342" depart="7217.25" from="-102925202" to="1148489399#1" type='car'/>
    <trip id="343" depart="7238.43" from="176435850" to="-643170756#0" type='car'/>
    <trip id="344" depart="7259.61" from="-302778225" to="29377703#1" type='car'/>
    <trip id="345" depart="7280.78" from="29170670#0" to="1171640558" type='car'/>
    <trip id="346" depart="7301.96" from="28394104#0" to="85933513" type='car'/>
    <trip id="347" depart="7323.14" from="5055419#4" to="22751307#1" type='car'/>
    <trip id="348" depart="7344.31" from="24509080#2" to="879147758#5" type='car'/>
    <trip id="349" depart="7365.49" from="1074829257#1" to="15785462#1" type='car'/>
    <trip id="350" depart="7386.67" from="24158359#1" to="832779567#2" type='car'/>
    <trip id="351" depart="7407.84" from="643166962" to="-137055699#0" type='car'/>