<?xml version="1.0" encoding="UTF-8"?>

<!-- generated on 2024-10-05 16:33:18.582889 by randomTrips.py v1_19_0+0000-baa66a0f364
<configuration>
    <net-file value="trimmed.net.xml"/>
    <additional-files value="genericVehicle.xml"/>
    <route-file value="randomTrips_truck3.rou.xml"/>
    <trip-attributes value="type='truck'"/>
    <insertion-rate value="51.0 51.0 51.0"/>
</configuration>
-->

<routes xmlns:xsi="http://www.w3.org/2001/XMLSchema-instance" xsi:noNamespaceSchemaLocation="http://sumo.dlr.de/xsd/routes_file.xsd">
    <trip id="0" depart="0.00" from="187486755#0" to="-1076442002" type='truck'/>
    <trip id="1" depart="70.59" from="-303412434" to="-28788646#0" type='truck'/>
    <trip id="2" depart="141.18" from="29170622#2" to="24164967#1" type='truck'/>
    <trip id="3" depart="211.76" from="704746731#0" to="-15785439#4" type='truck'/>
    <trip id="4" depart="282.35" from="1074607188" to="-1110672544" type='truck'/>
    <trip id="5" depart="352.94" from="-28343787#0" to="126350685#3" type='truck'/>
    <trip id="6" depart="423.53" from="-1076360289" to="-24248490" type='truck'/>
    <trip id="7" depart="494.12" from="22729816" to="15785418#1" type='truck'/>
    <trip id="8" depart="564.71" from="-28343791#0" to="160192350#1" type='truck'/>
    <trip id="9" depart="635.29" from="421767353#3" to="-1068885503#1" type='truck'/>
    <trip id="10" depart="705.88" from="418206264" to="24248441#0" type='truck'/>
    <trip id="11" depart="776.47" from="-825090424#2" to="-191549817" type='truck'/>
    <trip id="12" depart="847.06" from="894595931" to="-825090424#2" type='truck'/>
    <trip id="13" depart="917.65" from="-15785441#4" to="-15785450#2" type='truck'/>
    <trip id="14" depart="988.24" from="54338767#1" to="16174062#3" type='truck'/>
    <trip id="15" depart="1058.82" from="421767353#0" to="28788650#0" type='truck'/>
    <trip id="16" depart="1129.41" from="154644806#0" to="917450546#0" type='truck'/>
    <trip id="17" depart="1200.00" from="-960721731#3" to="15785426" type='truck'/>
    <trip id="18" depart="1270.59" from="4588648#0" to="176435844#3" type='truck'/>
    <trip id="19" depart="1341.18" from="575729108#1" to="15785467" type='truck'/>
    <trip id="20" depart="1411.76" from="24509303#3" to="-12255029#0" type='truck'/>
    <trip id="21" depart="1482.35" from="-28788646#1" to="-4588647#0" type='truck'/>
    <trip id="22" depart="1552.94" from="-15785418#7" to="-29170628#1" type='truck'/>
    <trip id="23" depart="1623.53" from="-15785450#5" to="-368461882#1" type='truck'/>
    <trip id="24" depart="1694.12" from="182972260" to="-925826461" type='truck'/>
    <trip id="25" depart="1764.71" from="-925826461" to="-255984631#0" type='truck'/>
    <trip id="26" depart="1835.29" from="-303412427#4" to="825090434#2" type='truck'/>
    <trip id="27" depart="1905.88" from="20816626#0" to="161754855#0" type='truck'/>
    <trip id="28" depart="1976.47" from="-22751310#2" to="28788646#1" type='truck'/>
    <trip id="29" depart="2047.06" from="-22751216#3" to="1035321070#1" type='truck'/>
    <trip id="30" depart="2117.65" from="945948203" to="187486755#2" type='truck'/>
    <trip id="31" depart="2188.24" from="15785439#1" to="24247758#2" type='truck'/>
    <trip id="32" depart="2258.82" from="5019952#1" to="303412430" type='truck'/>
    <trip id="33" depart="2329.41" from="-28788664#1" to="-1182394701" type='truck'/>
    <trip id="34" depart="2400.00" from="-575729555" to="-303412430" type='truck'/>
    <trip id="35" depart="2400.00" from="-255984629#2" to="82694445#1" type='truck'/>
    <trip id="36" depart="2470.59" from="615478345" to="-615456193#2" type='truck'/>
    <trip id="37" depart="2541.18" from="22751216#5" to="1069841143#2" type='truck'/>
    <trip id="38" depart="2611.76" from="799741449#1" to="1193896447" type='truck'/>
    <trip id="39" depart="2682.35" from="-303412427#2" to="-29377703#3" type='truck'/>
    <trip id="40" depart="2752.94" from="15785441#1" to="-303412427#5" type='truck'/>
    <trip id="41" depart="2823.53" from="160192335" to="71942407" type='truck'/>
    <trip id="42" depart="2894.12" from="1069841143#2" to="-28404072#0" type='truck'/>
    <trip id="43" depart="2964.71" from="9495525" to="136822571#2" type='truck'/>
    <trip id="44" depart="3035.29" from="-15785441#1" to="-12255066#1" type='truck'/>
    <trip id="45" depart="3105.88" from="-15785493" to="176458040" type='truck'/>
    <trip id="46" depart="3176.47" from="34544814#1" to="1074829257#0" type='truck'/>
    <trip id="47" depart="3247.06" from="-132686162" to="1035321071#1" type='truck'/>
    <trip id="48" depart="3317.65" from="9495515#2" to="150158647#1" type='truck'/>
    <trip id="49" depart="3388.24" from="917450545" to="563391736#2" type='truck'/>
    <trip id="50" depart="3458.82" from="-1069841143#2" to="28347151#0" type='truck'/>
    <trip id="51" depart="3529.41" from="24247741" to="154644806#2" type='truck'/>
    <trip id="52" depart="3600.00" from="-303412427#4" to="187486755#3" type='truck'/>
</routes>
