<?xml version="1.0" encoding="UTF-8"?>

<!-- generated on 2024-07-16 22:23:58.916926 by randomTrips.py v1_19_0+0000-baa66a0f364
<configuration>
    <net-file value="full.net.xml"/>
    <additional-files value="genericVehicle.xml"/>
    <route-file value="randomTrips_truck1.rou.xml"/>
    <trip-attributes value="type='truck'"/>
    <insertion-rate value="40.0 40.0 40.0"/>
</configuration>
-->

<routes xmlns:xsi="http://www.w3.org/2001/XMLSchema-instance" xsi:noNamespaceSchemaLocation="http://sumo.dlr.de/xsd/routes_file.xsd">
    <trip id="0" depart="0.00" from="23784738#2" to="-10853062#3" type='truck'/>
    <trip id="1" depart="90.00" from="-548314354" to="-29377703#3" type='truck'/>
    <trip id="2" depart="180.00" from="332100657#6" to="27323187#3" type='truck'/>
    <trip id="3" depart="270.00" from="806249277#2" to="-154837034#2" type='truck'/>
    <trip id="4" depart="360.00" from="107396684#1" to="-1111947800#0" type='truck'/>
    <trip id="5" depart="450.00" from="-29169513#1" to="137055699#3" type='truck'/>
    <trip id="6" depart="540.00" from="-10853062#2" to="-27276538#5" type='truck'/>
    <trip id="7" depart="630.00" from="24164733" to="15785466" type='truck'/>
    <trip id="8" depart="720.00" from="-29170628#0" to="176435844#6" type='truck'/>
    <trip id="9" depart="810.00" from="592221046#1" to="-1067761767#2" type='truck'/>
    <trip id="10" depart="900.00" from="575729108#3" to="29169527#0" type='truck'/>
    <trip id="11" depart="990.00" from="-8598773#3" to="-22751222#1" type='truck'/>
    <trip id="12" depart="1080.00" from="904980039#1" to="-8652887#2" type='truck'/>
    <trip id="13" depart="1170.00" from="-154837043" to="-15785439#1" type='truck'/>
    <trip id="14" depart="1200.00" from="697708631" to="183689345#0" type='truck'/>
    <trip id="15" depart="1290.00" from="583421939" to="32527595#7" type='truck'/>
    <trip id="16" depart="1380.00" from="156307521#0" to="923261417#1" type='truck'/>
    <trip id="17" depart="1470.00" from="-9495769#0" to="15833850#5" type='truck'/>
    <trip id="18" depart="1560.00" from="643170219" to="22694403" type='truck'/>
    <trip id="19" depart="1650.00" from="741799316#1" to="161754854#2" type='truck'/>
    <trip id="20" depart="1740.00" from="29254951#0" to="-12254923#3" type='truck'/>
    <trip id="21" depart="1830.00" from="-29378777#0" to="-643170217#1" type='truck'/>
    <trip id="22" depart="1920.00" from="-150158651#3" to="-303412430" type='truck'/>
    <trip id="23" depart="2010.00" from="-15785441#2" to="-573429038#0" type='truck'/>
    <trip id="24" depart="2100.00" from="23296582#4" to="-917970208" type='truck'/>
    <trip id="25" depart="2190.00" from="-91845515" to="-28596316#1" type='truck'/>
    <trip id="26" depart="2280.00" from="-4478182" to="879147763#1" type='truck'/>
    <trip id="27" depart="2370.00" from="24158463#0" to="186866770" type='truck'/>
    <trip id="28" depart="2400.00" from="-23784738#2" to="32527595#4" type='truck'/>
    <trip id="29" depart="2490.00" from="-22751838#4" to="-9867087#2" type='truck'/>
    <trip id="30" depart="2580.00" from="97073858#4" to="24158218#2" type='truck'/>
    <trip id="31" depart="2670.00" from="158627309#2" to="28347490#0" type='truck'/>
    <trip id="32" depart="2760.00" from="693141378#3" to="4637707#0" type='truck'/>
    <trip id="33" depart="2850.00" from="-29379132#0" to="-1123244161#0" type='truck'/>
    <trip id="34" depart="2940.00" from="-771317202#0" to="-5019469#0" type='truck'/>
    <trip id="35" depart="3030.00" from="-28404072#0" to="894430767#0" type='truck'/>
    <trip id="36" depart="3120.00" from="780755505#1" to="-796523193" type='truck'/>
    <trip id="37" depart="3210.00" from="24247741" to="1066216974" type='truck'/>
    <trip id="38" depart="3300.00" from="833362285#0" to="1193500038#0" type='truck'/>
    <trip id="39" depart="3390.00" from="-4332734#6" to="-34545208#1" type='truck'/>
    <trip id="40" depart="3480.00" from="160192335" to="-444541477#3" type='truck'/>
    <trip id="41" depart="3570.00" from="16354221#3" to="820063582#1" type='truck'/>
</routes>
