<?xml version="1.0" encoding="UTF-8"?>

<!-- generated on 2024-07-17 13:22:21.708698 by randomTrips.py v1_19_0+0000-baa66a0f364
<configuration>
    <net-file value="full.net.xml"/>
    <additional-files value="genericVehicle.xml"/>
    <route-file value="randomTrips_truck3.rou.xml"/>
    <trip-attributes value="type='truck'"/>
    <insertion-rate value="100.0 100.0 100.0"/>
</configuration>
-->

<routes xmlns:xsi="http://www.w3.org/2001/XMLSchema-instance" xsi:noNamespaceSchemaLocation="http://sumo.dlr.de/xsd/routes_file.xsd">
    <trip id="0" depart="0.00" from="23784738#2" to="-10853062#3" type='truck'/>
    <trip id="1" depart="36.00" from="-548314354" to="-29377703#3" type='truck'/>
    <trip id="2" depart="72.00" from="332100657#6" to="27323187#3" type='truck'/>
    <trip id="3" depart="108.00" from="806249277#2" to="-154837034#2" type='truck'/>
    <trip id="4" depart="144.00" from="107396684#1" to="-1111947800#0" type='truck'/>
    <trip id="5" depart="180.00" from="-29169513#1" to="137055699#3" type='truck'/>
    <trip id="6" depart="216.00" from="-10853062#2" to="-27276538#5" type='truck'/>
    <trip id="7" depart="252.00" from="24164733" to="15785466" type='truck'/>
    <trip id="8" depart="288.00" from="-29170628#0" to="176435844#6" type='truck'/>
    <trip id="9" depart="324.00" from="592221046#1" to="-1067761767#2" type='truck'/>
    <trip id="10" depart="360.00" from="575729108#3" to="29169527#0" type='truck'/>
    <trip id="11" depart="396.00" from="-8598773#3" to="-22751222#1" type='truck'/>
    <trip id="12" depart="432.00" from="904980039#1" to="-8652887#2" type='truck'/>
    <trip id="13" depart="468.00" from="-154837043" to="-15785439#1" type='truck'/>
    <trip id="14" depart="504.00" from="697708631" to="183689345#0" type='truck'/>
    <trip id="15" depart="540.00" from="583421939" to="32527595#7" type='truck'/>
    <trip id="16" depart="576.00" from="156307521#0" to="923261417#1" type='truck'/>
    <trip id="17" depart="612.00" from="-9495769#0" to="15833850#5" type='truck'/>
    <trip id="18" depart="648.00" from="643170219" to="22694403" type='truck'/>
    <trip id="19" depart="684.00" from="741799316#1" to="161754854#2" type='truck'/>
    <trip id="20" depart="720.00" from="29254951#0" to="-12254923#3" type='truck'/>
    <trip id="21" depart="756.00" from="-29378777#0" to="-643170217#1" type='truck'/>
    <trip id="22" depart="792.00" from="-150158651#3" to="-303412430" type='truck'/>
    <trip id="23" depart="828.00" from="-15785441#2" to="-573429038#0" type='truck'/>
    <trip id="24" depart="864.00" from="23296582#4" to="-917970208" type='truck'/>
    <trip id="25" depart="900.00" from="-91845515" to="-28596316#1" type='truck'/>
    <trip id="26" depart="936.00" from="-4478182" to="879147763#1" type='truck'/>
    <trip id="27" depart="972.00" from="24158463#0" to="186866770" type='truck'/>
    <trip id="28" depart="1008.00" from="-23784738#2" to="32527595#4" type='truck'/>
    <trip id="29" depart="1044.00" from="-22751838#4" to="-9867087#2" type='truck'/>
    <trip id="30" depart="1080.00" from="97073858#4" to="24158218#2" type='truck'/>
    <trip id="31" depart="1116.00" from="158627309#2" to="28347490#0" type='truck'/>
    <trip id="32" depart="1152.00" from="693141378#3" to="4637707#0" type='truck'/>
    <trip id="33" depart="1188.00" from="-29379132#0" to="-1123244161#0" type='truck'/>
    <trip id="34" depart="1200.00" from="-771317202#0" to="-5019469#0" type='truck'/>
    <trip id="35" depart="1236.00" from="-28404072#0" to="894430767#0" type='truck'/>
    <trip id="36" depart="1272.00" from="780755505#1" to="-796523193" type='truck'/>
    <trip id="37" depart="1308.00" from="24247741" to="1066216974" type='truck'/>
    <trip id="38" depart="1344.00" from="833362285#0" to="1193500038#0" type='truck'/>
    <trip id="39" depart="1380.00" from="-4332734#6" to="-34545208#1" type='truck'/>
    <trip id="40" depart="1416.00" from="160192335" to="-444541477#3" type='truck'/>
    <trip id="41" depart="1452.00" from="16354221#3" to="820063582#1" type='truck'/>
    <trip id="42" depart="1488.00" from="1066216972" to="-29254951#0" type='truck'/>
    <trip id="43" depart="1524.00" from="9868998#10" to="13866859#8" type='truck'/>
    <trip id="44" depart="1560.00" from="-154837039#3" to="-12255025#2" type='truck'/>
    <trip id="45" depart="1596.00" from="-15833833#1" to="22751838#2" type='truck'/>
    <trip id="46" depart="1632.00" from="54338767#2" to="1074957742" type='truck'/>
    <trip id="47" depart="1668.00" from="-131714152#4" to="-9867771#6" type='truck'/>
    <trip id="48" depart="1704.00" from="9867771#1" to="154837039#6" type='truck'/>
    <trip id="49" depart="1740.00" from="921177972#2" to="741799316#1" type='truck'/>
    <trip id="50" depart="1776.00" from="-1069134650#0" to="309585111#1" type='truck'/>
    <trip id="51" depart="1812.00" from="27650805#1" to="15785418#2" type='truck'/>
    <trip id="52" depart="1848.00" from="-4478182" to="24158225#3" type='truck'/>
    <trip id="53" depart="1884.00" from="-15833850#4" to="10853055" type='truck'/>
    <trip id="54" depart="1920.00" from="1148489399#0" to="904660166#3" type='truck'/>
    <trip id="55" depart="1956.00" from="776059141" to="-4588647#3" type='truck'/>
    <trip id="56" depart="1992.00" from="136822575" to="-24164989#2" type='truck'/>
    <trip id="57" depart="2028.00" from="832779572#3" to="771317202#2" type='truck'/>
    <trip id="58" depart="2064.00" from="-675770223#1" to="24158210#3" type='truck'/>
    <trip id="59" depart="2100.00" from="185227306#1" to="-22748963#5" type='truck'/>
    <trip id="60" depart="2136.00" from="409263833" to="15785436#0" type='truck'/>
    <trip id="61" depart="2172.00" from="4637707#1" to="154837042#3" type='truck'/>
    <trip id="62" depart="2208.00" from="-1018359441" to="-82694042#4" type='truck'/>
    <trip id="63" depart="2244.00" from="-1076442002" to="8652887#1" type='truck'/>
    <trip id="64" depart="2280.00" from="787332301" to="673787481" type='truck'/>
    <trip id="65" depart="2316.00" from="-700489177" to="-126342424#4" type='truck'/>
    <trip id="66" depart="2352.00" from="784737615" to="895559286#2" type='truck'/>
    <trip id="67" depart="2388.00" from="-154644797#1" to="126342421" type='truck'/>
    <trip id="68" depart="2400.00" from="-133452689#6" to="415765424" type='truck'/>
    <trip id="69" depart="2436.00" from="420657996" to="-171771156#1" type='truck'/>
    <trip id="70" depart="2472.00" from="12254923#3" to="15833833#0" type='truck'/>
    <trip id="71" depart="2508.00" from="-4332734#7" to="771367204#0" type='truck'/>
    <trip id="72" depart="2544.00" from="107396685#3" to="-28788664#2" type='truck'/>
    <trip id="73" depart="2580.00" from="156307559#1" to="32527595#8" type='truck'/>
    <trip id="74" depart="2616.00" from="-27276463#5" to="-771352866" type='truck'/>
    <trip id="75" depart="2652.00" from="9867092#2" to="24164989#3" type='truck'/>
    <trip id="76" depart="2688.00" from="10852972#3" to="150867914#1" type='truck'/>
    <trip id="77" depart="2724.00" from="-160192356" to="-29378777#5" type='truck'/>
    <trip id="78" depart="2760.00" from="-846779440#1" to="176435844#0" type='truck'/>
    <trip id="79" depart="2796.00" from="-29379179#1" to="-29255098#1" type='truck'/>
    <trip id="80" depart="2832.00" from="-137055696#14" to="23296573#4" type='truck'/>
    <trip id="81" depart="2868.00" from="-29378777#5" to="82694042#3" type='truck'/>
    <trip id="82" depart="2904.00" from="729164041#1" to="-137055696#6" type='truck'/>
    <trip id="83" depart="2940.00" from="-303412433#1" to="26601207" type='truck'/>
    <trip id="84" depart="2976.00" from="-28755946" to="-176435844#6" type='truck'/>
    <trip id="85" depart="3012.00" from="879147760#1" to="16081568#1" type='truck'/>
    <trip id="86" depart="3048.00" from="1216781218" to="5055419#0" type='truck'/>
    <trip id="87" depart="3084.00" from="583441086" to="-255984631#0" type='truck'/>
    <trip id="88" depart="3120.00" from="-15785418#2" to="1085248940" type='truck'/>
    <trip id="89" depart="3156.00" from="107396685#5" to="120497489#2" type='truck'/>
    <trip id="90" depart="3192.00" from="32505399#2" to="27276496#0" type='truck'/>
    <trip id="91" depart="3228.00" from="9495525" to="-15785441#4" type='truck'/>
    <trip id="92" depart="3264.00" from="1066220808#2" to="-879147757#0" type='truck'/>
    <trip id="93" depart="3300.00" from="741799316#1" to="-368461882#2" type='truck'/>
    <trip id="94" depart="3336.00" from="-24509080#1" to="112450954#0" type='truck'/>
    <trip id="95" depart="3372.00" from="107396683" to="-573461192" type='truck'/>
    <trip id="96" depart="3408.00" from="-34544780#1" to="85933466#0" type='truck'/>
    <trip id="97" depart="3444.00" from="1088187917" to="741799317" type='truck'/>
    <trip id="98" depart="3480.00" from="15785495#9" to="-124013055#2" type='truck'/>
    <trip id="99" depart="3516.00" from="990608181" to="683046783#2" type='truck'/>
    <trip id="100" depart="3552.00" from="917970208" to="8598858#1" type='truck'/>
    <trip id="101" depart="3588.00" from="700489178" to="-23784359" type='truck'/>
</routes>
