<?xml version="1.0" encoding="UTF-8"?>

<!-- generated on 2024-10-25 11:26:38.983533 by randomTrips.py v1_21_0+0000-d7b3b481c43
<configuration>
    <net-file value="edited.net.xml"/>
    <additional-files value="genericVehicle.xml"/>
    <route-file value="randomTrips_truck3.rou.xml"/>
    <trip-attributes value="type='truck'"/>
    <insertion-rate value="324.0 324.0"/>
</configuration>
-->

<routes xmlns:xsi="http://www.w3.org/2001/XMLSchema-instance" xsi:noNamespaceSchemaLocation="http://sumo.dlr.de/xsd/routes_file.xsd">
    <trip id="0" depart="0.00" from="187486755#0" to="-1076442002" type='truck'/>
    <trip id="1" depart="11.11" from="-303412434" to="-28788646#0" type='truck'/>
    <trip id="2" depart="22.22" from="29170622#2" to="24164967#0" type='truck'/>
    <trip id="3" depart="33.33" from="704746731#0" to="-15785439#4" type='truck'/>
    <trip id="4" depart="44.44" from="1074607188" to="-1110672544" type='truck'/>
    <trip id="5" depart="55.56" from="-28343787#0" to="126350685#3" type='truck'/>
    <trip id="6" depart="66.67" from="-1076360289" to="-24248490" type='truck'/>
    <trip id="7" depart="77.78" from="22729816" to="15785418#1" type='truck'/>
    <trip id="8" depart="88.89" from="-28343791#0" to="160192346#0" type='truck'/>
    <trip id="9" depart="100.00" from="421767353#3" to="-1068885503#1" type='truck'/>
    <trip id="10" depart="111.11" from="418206264" to="24248438#2" type='truck'/>
    <trip id="11" depart="122.22" from="-825090424#2" to="-191549817" type='truck'/>
    <trip id="12" depart="133.33" from="894595931" to="-825090424#2" type='truck'/>
    <trip id="13" depart="144.44" from="-15785441#4" to="-15785450#2" type='truck'/>
    <trip id="14" depart="155.56" from="54338767#1" to="16174062#2" type='truck'/>
    <trip id="15" depart="166.67" from="421767353#0" to="28788646#1" type='truck'/>
    <trip id="16" depart="177.78" from="154644806#0" to="917450546#0" type='truck'/>
    <trip id="17" depart="188.89" from="-960721731#3" to="15785423#2" type='truck'/>
    <trip id="18" depart="200.00" from="4588648#0" to="176435844#1" type='truck'/>
    <trip id="19" depart="211.11" from="575729108#1" to="15785466" type='truck'/>
    <trip id="20" depart="222.22" from="24509303#3" to="-12255029#0" type='truck'/>
    <trip id="21" depart="233.33" from="-28788646#1" to="-4478182" type='truck'/>
    <trip id="22" depart="244.44" from="-15785418#7" to="-29170628#0" type='truck'/>
    <trip id="23" depart="255.56" from="-15785450#5" to="-368461882#1" type='truck'/>
    <trip id="24" depart="266.67" from="182972260" to="-924607338" type='truck'/>
    <trip id="25" depart="277.78" from="-925826461" to="-255984631#0" type='truck'/>
    <trip id="26" depart="288.89" from="-303412427#4" to="825090434#1" type='truck'/>
    <trip id="27" depart="300.00" from="20816626#0" to="161754855#0" type='truck'/>
    <trip id="28" depart="311.11" from="-22751310#2" to="28788646#1" type='truck'/>
    <trip id="29" depart="322.22" from="-22751216#3" to="1035321070#1" type='truck'/>
    <trip id="30" depart="333.33" from="945948203" to="187486755#1" type='truck'/>
    <trip id="31" depart="344.44" from="15785439#1" to="24247758#1" type='truck'/>
    <trip id="32" depart="355.56" from="5019952#1" to="303412428#2" type='truck'/>
    <trip id="33" depart="366.67" from="-28788664#1" to="-1182394701" type='truck'/>
    <trip id="34" depart="377.78" from="-575729555" to="-303412428#2" type='truck'/>
    <trip id="35" depart="388.89" from="-255984629#2" to="82694445#0" type='truck'/>
    <trip id="36" depart="400.00" from="615478345" to="-615456193#2" type='truck'/>
    <trip id="37" depart="411.11" from="22751216#5" to="1069841143#2" type='truck'/>
    <trip id="38" depart="422.22" from="799741449#1" to="118784832#1" type='truck'/>
    <trip id="39" depart="433.33" from="-303412427#2" to="-29377703#3" type='truck'/>
    <trip id="40" depart="444.44" from="15785441#1" to="-303412427#5" type='truck'/>
    <trip id="41" depart="455.56" from="160192335" to="71942407" type='truck'/>
    <trip id="42" depart="466.67" from="1069841143#2" to="-28347151#1" type='truck'/>
    <trip id="43" depart="477.78" from="9495525" to="136822571#1" type='truck'/>
    <trip id="44" depart="488.89" from="-15785441#1" to="-12255066#1" type='truck'/>
    <trip id="45" depart="500.00" from="-15785493" to="176438187" type='truck'/>
    <trip id="46" depart="511.11" from="34544814#1" to="1074607189#1" type='truck'/>
    <trip id="47" depart="522.22" from="-132686162" to="1035321071#1" type='truck'/>
    <trip id="48" depart="533.33" from="9495515#2" to="150158647#1" type='truck'/>
    <trip id="49" depart="544.44" from="917450545" to="563391736#1" type='truck'/>
    <trip id="50" depart="555.56" from="-1069841143#2" to="28343791#1" type='truck'/>
    <trip id="51" depart="566.67" from="24247741" to="154644806#1" type='truck'/>
    <trip id="52" depart="577.78" from="-303412427#4" to="187486755#2" type='truck'/>
    <trip id="53" depart="588.89" from="-15833743#1" to="1085331331#1" type='truck'/>
    <trip id="54" depart="600.00" from="118783734#2" to="8598773#2" type='truck'/>
    <trip id="55" depart="611.11" from="615478345" to="-303412427#5" type='truck'/>
    <trip id="56" depart="622.22" from="126342429" to="-24158358#5" type='truck'/>
    <trip id="57" depart="633.33" from="799741448" to="615456193#2" type='truck'/>
    <trip id="58" depart="644.44" from="-48627096#1" to="187486755#0" type='truck'/>
    <trip id="59" depart="655.56" from="161754854#2" to="-187486758#5" type='truck'/>
    <trip id="60" depart="666.67" from="303412427#11" to="154644806#4" type='truck'/>
    <trip id="61" depart="677.78" from="303412433#1" to="150158647#2" type='truck'/>
    <trip id="62" depart="688.89" from="-1019463922" to="-694268909#1" type='truck'/>
    <trip id="63" depart="700.00" from="-107396685#1" to="820063586" type='truck'/>
    <trip id="64" depart="711.11" from="675865742#0" to="4588648#1" type='truck'/>
    <trip id="65" depart="722.22" from="-563377895#1" to="-126342423#2" type='truck'/>
    <trip id="66" depart="733.33" from="666206774" to="832779574#0" type='truck'/>
    <trip id="67" depart="744.44" from="-15785436#1" to="12255025#2" type='truck'/>
    <trip id="68" depart="755.56" from="-154644806#4" to="303412427#0" type='truck'/>
    <trip id="69" depart="766.67" from="303412427#15" to="-16174062#3" type='truck'/>
    <trip id="70" depart="777.78" from="1216781217" to="15785418#7" type='truck'/>
    <trip id="71" depart="788.89" from="-303412427#2" to="615478343#0" type='truck'/>
    <trip id="72" depart="800.00" from="1074607189#0" to="-256019250#4" type='truck'/>
    <trip id="73" depart="811.11" from="154644806#5" to="28788650#0" type='truck'/>
    <trip id="74" depart="822.22" from="-24248441#1" to="-575729108#4" type='truck'/>
    <trip id="75" depart="833.33" from="9495515#1" to="22694350" type='truck'/>
    <trip id="76" depart="844.44" from="1110672544" to="136822584" type='truck'/>
    <trip id="77" depart="855.56" from="-160192360#0" to="-28788664#0" type='truck'/>
    <trip id="78" depart="866.67" from="-820063588" to="160192343#6" type='truck'/>
    <trip id="79" depart="877.78" from="-28788664#2" to="-28404072#1" type='truck'/>
    <trip id="80" depart="888.89" from="-154644806#6" to="178592043" type='truck'/>
    <trip id="81" depart="900.00" from="-28788664#1" to="757990549" type='truck'/>
    <trip id="82" depart="911.11" from="563391736#0" to="-154644810#0" type='truck'/>
    <trip id="83" depart="922.22" from="-29170656#1" to="24158358#0" type='truck'/>
    <trip id="84" depart="933.33" from="-255984631#1" to="-175374037" type='truck'/>
    <trip id="85" depart="944.44" from="825090434#0" to="15785450#4" type='truck'/>
    <trip id="86" depart="955.56" from="1216781214#0" to="310627474#7" type='truck'/>
    <trip id="87" depart="966.67" from="421767353#0" to="-24247933" type='truck'/>
    <trip id="88" depart="977.78" from="-15785444#1" to="1077826846" type='truck'/>
    <trip id="89" depart="988.89" from="1074607189#1" to="119883577#8" type='truck'/>
    <trip id="90" depart="1000.00" from="28788646#1" to="24158358#6" type='truck'/>
    <trip id="91" depart="1011.11" from="940612553" to="-15785450#5" type='truck'/>
    <trip id="92" depart="1022.22" from="1069841149" to="-825090434#2" type='truck'/>
    <trip id="93" depart="1033.33" from="575729108#1" to="-29378777#3" type='truck'/>
    <trip id="94" depart="1044.44" from="-24247764#0" to="1171640558" type='truck'/>
    <trip id="95" depart="1055.56" from="1074607188" to="-368461882#2" type='truck'/>
    <trip id="96" depart="1066.67" from="-29377703#2" to="820063579#0" type='truck'/>
    <trip id="97" depart="1077.78" from="1148489399#2" to="563391736#2" type='truck'/>
    <trip id="98" depart="1088.89" from="15785418#7" to="-126342417#0" type='truck'/>
    <trip id="99" depart="1100.00" from="9867184" to="48630242#1" type='truck'/>
    <trip id="100" depart="1111.11" from="917450544#0" to="820063583" type='truck'/>
    <trip id="101" depart="1122.22" from="54338767#2" to="-22751224#4" type='truck'/>
    <trip id="102" depart="1133.33" from="12255029#0" to="-262409052#1" type='truck'/>
    <trip id="103" depart="1144.44" from="1069841147" to="-126342430" type='truck'/>
    <trip id="104" depart="1155.56" from="-960721731#3" to="940627086" type='truck'/>
    <trip id="105" depart="1166.67" from="-303412427#2" to="310627474#4" type='truck'/>
    <trip id="106" depart="1177.78" from="118783741#0" to="1074829257#0" type='truck'/>
    <trip id="107" depart="1188.89" from="894595931" to="9495515#0" type='truck'/>
    <trip id="108" depart="1200.00" from="15785439#0" to="28343787#0" type='truck'/>
    <trip id="109" depart="1211.11" from="-187486758#1" to="-48630242#3" type='truck'/>
    <trip id="110" depart="1222.22" from="917450544#0" to="15785471#1" type='truck'/>
    <trip id="111" depart="1233.33" from="154644810#0" to="29254795#1" type='truck'/>
    <trip id="112" depart="1244.44" from="-126342420#3" to="15834230" type='truck'/>
    <trip id="113" depart="1255.56" from="126350685#1" to="54338771#2" type='truck'/>
    <trip id="114" depart="1266.67" from="-187489436#2" to="908668114#0" type='truck'/>
    <trip id="115" depart="1277.78" from="-15785423#0" to="-24247764#0" type='truck'/>
    <trip id="116" depart="1288.89" from="160192379" to="24158359#1" type='truck'/>
    <trip id="117" depart="1300.00" from="-29170628#0" to="-160192379" type='truck'/>
    <trip id="118" depart="1311.11" from="704746729#1" to="-29377703#2" type='truck'/>
    <trip id="119" depart="1322.22" from="160192360#2" to="176435844#3" type='truck'/>
    <trip id="120" depart="1333.33" from="107396685#5" to="15834230" type='truck'/>
    <trip id="121" depart="1344.44" from="13866859#0" to="825090424#3" type='truck'/>
    <trip id="122" depart="1355.56" from="-24248542" to="262409052#1" type='truck'/>
    <trip id="123" depart="1366.67" from="-29170656#2" to="1069841143#2" type='truck'/>
    <trip id="124" depart="1377.78" from="24158358#4" to="-5019469#4" type='truck'/>
    <trip id="125" depart="1388.89" from="-615456193#0" to="29377703#0" type='truck'/>
    <trip id="126" depart="1400.00" from="-154644810#0" to="118784832#1" type='truck'/>
    <trip id="127" depart="1411.11" from="960721731#3" to="9495515#1" type='truck'/>
    <trip id="128" depart="1422.22" from="-154644810#1" to="-262409052#0" type='truck'/>
    <trip id="129" depart="1433.33" from="-303412427#2" to="825090424#1" type='truck'/>
    <trip id="130" depart="1444.44" from="685156794#0" to="675865742#0" type='truck'/>
    <trip id="131" depart="1455.56" from="-925826461" to="-22751166#1" type='truck'/>
    <trip id="132" depart="1466.67" from="48627096#0" to="24248542" type='truck'/>
    <trip id="133" depart="1477.78" from="161754856" to="945948199" type='truck'/>
    <trip id="134" depart="1488.89" from="22751216#2" to="-1069829005#0" type='truck'/>
    <trip id="135" depart="1500.00" from="4332734#1" to="-5019469#4" type='truck'/>
    <trip id="136" depart="1511.11" from="22751310#2" to="82694037#0" type='truck'/>
    <trip id="137" depart="1522.22" from="-16354911" to="-160192350#1" type='truck'/>
    <trip id="138" depart="1533.33" from="-15785467" to="15785430#0" type='truck'/>
    <trip id="139" depart="1544.44" from="-303412432" to="16174062#4" type='truck'/>
    <trip id="140" depart="1555.56" from="28343787#0" to="-24509303#3" type='truck'/>
    <trip id="141" depart="1566.67" from="178592044#3" to="-303412427#6" type='truck'/>
    <trip id="142" depart="1577.78" from="12450267#0" to="757990549" type='truck'/>
    <trip id="143" depart="1588.89" from="51060360" to="-15785441#5" type='truck'/>
    <trip id="144" depart="1600.00" from="1074607189#1" to="-354449750" type='truck'/>
    <trip id="145" depart="1611.11" from="-1068103211" to="303412427#4" type='truck'/>
    <trip id="146" depart="1622.22" from="186714048#0" to="-303412427#4" type='truck'/>
    <trip id="147" depart="1633.33" from="29170656#1" to="15785423#2" type='truck'/>
    <trip id="148" depart="1644.44" from="1076360289" to="-1069829005#2" type='truck'/>
    <trip id="149" depart="1655.56" from="-15785418#1" to="694268909#0" type='truck'/>
    <trip id="150" depart="1666.67" from="745183364#2" to="15785418#2" type='truck'/>
    <trip id="151" depart="1677.78" from="48627096#1" to="15833743#1" type='truck'/>
    <trip id="152" depart="1688.89" from="-182992394" to="-16174062#1" type='truck'/>
    <trip id="153" depart="1700.00" from="-563377895#2" to="729164041#0" type='truck'/>
    <trip id="154" depart="1711.11" from="368461882#2" to="563391736#1" type='truck'/>
    <trip id="155" depart="1722.22" from="729164041#0" to="-255984631#1" type='truck'/>
    <trip id="156" depart="1733.33" from="-29377703#2" to="-15785462#2" type='truck'/>
    <trip id="157" depart="1744.44" from="310627473" to="694268909#1" type='truck'/>
    <trip id="158" depart="1755.56" from="1072039865#1" to="176435844#5" type='truck'/>
    <trip id="159" depart="1766.67" from="-187486758#1" to="820063587#1" type='truck'/>
    <trip id="160" depart="1777.78" from="575729108#4" to="923261416" type='truck'/>
    <trip id="161" depart="1788.89" from="421767353#5" to="685156794#1" type='truck'/>
    <trip id="162" depart="1800.00" from="-1074915301" to="29170622#2" type='truck'/>
    <trip id="163" depart="1800.00" from="-71940900#4" to="820063588" type='truck'/>
    <trip id="164" depart="1811.11" from="38426188" to="575729108#3" type='truck'/>
    <trip id="165" depart="1822.22" from="421767353#4" to="-303412428#1" type='truck'/>
    <trip id="166" depart="1833.33" from="32981461" to="-15833743#0" type='truck'/>
    <trip id="167" depart="1844.44" from="615478342" to="563387015" type='truck'/>
    <trip id="168" depart="1855.56" from="-28347151#1" to="4332731" type='truck'/>
    <trip id="169" depart="1866.67" from="119420241#1" to="-563377895#2" type='truck'/>
    <trip id="170" depart="1877.78" from="368461882#1" to="-28788669" type='truck'/>
    <trip id="171" depart="1888.89" from="-107396685#6" to="-24248377#2" type='truck'/>
    <trip id="172" depart="1900.00" from="-694630249" to="575729108#4" type='truck'/>
    <trip id="173" depart="1911.11" from="9160986#3" to="-369891483" type='truck'/>
    <trip id="174" depart="1922.22" from="187486755#3" to="1069841148" type='truck'/>
    <trip id="175" depart="1933.33" from="924607337#4" to="154644806#0" type='truck'/>
    <trip id="176" depart="1944.44" from="82694042#4" to="-160192350#1" type='truck'/>
    <trip id="177" depart="1955.56" from="917450544#2" to="-24158358#5" type='truck'/>
    <trip id="178" depart="1966.67" from="908668116#2" to="-303412427#8" type='truck'/>
    <trip id="179" depart="1977.78" from="-15785471#0" to="1085331331#1" type='truck'/>
    <trip id="180" depart="1988.89" from="28788646#1" to="-615456193#1" type='truck'/>
    <trip id="181" depart="2000.00" from="16174062#5" to="136822574" type='truck'/>
    <trip id="182" depart="2011.11" from="1035321071#1" to="15785462#2" type='truck'/>
    <trip id="183" depart="2022.22" from="-29397305" to="255984629#0" type='truck'/>
    <trip id="184" depart="2033.33" from="-105691112#1" to="820063582#1" type='truck'/>
    <trip id="185" depart="2044.44" from="154644806#3" to="28343791#0" type='truck'/>
    <trip id="186" depart="2055.56" from="29170656#1" to="24158358#2" type='truck'/>
    <trip id="187" depart="2066.67" from="-923261417#0" to="-154644806#7" type='truck'/>
    <trip id="188" depart="2077.78" from="22751830#1" to="-7980896" type='truck'/>
    <trip id="189" depart="2088.89" from="-575729108#3" to="51060360" type='truck'/>
    <trip id="190" depart="2100.00" from="28343791#1" to="-5019469#5" type='truck'/>
    <trip id="191" depart="2111.11" from="-563377900" to="107396681#6" type='truck'/>
    <trip id="192" depart="2122.22" from="1069841149" to="-48630242#2" type='truck'/>
    <trip id="193" depart="2133.33" from="-160192388#0" to="1074607188" type='truck'/>
    <trip id="194" depart="2144.44" from="82694445#0" to="24164967#1" type='truck'/>
    <trip id="195" depart="2155.56" from="745183364#1" to="16354995#1" type='truck'/>
    <trip id="196" depart="2166.67" from="-48630242#3" to="15785418#5" type='truck'/>
    <trip id="197" depart="2177.78" from="-1019463922" to="-4332734#6" type='truck'/>
    <trip id="198" depart="2188.89" from="1077721624" to="15785493" type='truck'/>
    <trip id="199" depart="2200.00" from="22751216#3" to="119883577#6" type='truck'/>
    <trip id="200" depart="2211.11" from="1148489399#1" to="-262409052#1" type='truck'/>
    <trip id="201" depart="2222.22" from="1216781214#2" to="745183362" type='truck'/>
    <trip id="202" depart="2233.33" from="368461882#2" to="-22751830#0" type='truck'/>
    <trip id="203" depart="2244.44" from="-15785436#0" to="136822580#2" type='truck'/>
    <trip id="204" depart="2255.56" from="178592044#1" to="-820063588" type='truck'/>
    <trip id="205" depart="2266.67" from="4332734#3" to="29257171#2" type='truck'/>
    <trip id="206" depart="2277.78" from="24158358#5" to="-28788664#0" type='truck'/>
    <trip id="207" depart="2288.89" from="-24248438#2" to="-1076360289" type='truck'/>
    <trip id="208" depart="2300.00" from="-29254795#1" to="1216781216" type='truck'/>
    <trip id="209" depart="2311.11" from="54338771#1" to="-154644810#3" type='truck'/>
    <trip id="210" depart="2322.22" from="107396683" to="176458049" type='truck'/>
    <trip id="211" depart="2333.33" from="-24247912" to="24248438#0" type='truck'/>
    <trip id="212" depart="2344.44" from="126342420#1" to="-29257171#1" type='truck'/>
    <trip id="213" depart="2355.56" from="22751222#0" to="-1068109073#2" type='truck'/>
    <trip id="214" depart="2366.67" from="29257171#1" to="303412427#2" type='truck'/>
    <trip id="215" depart="2377.78" from="-15785466" to="1074915301" type='truck'/>
    <trip id="216" depart="2388.89" from="-22751838#8" to="894202510" type='truck'/>
    <trip id="217" depart="2400.00" from="136822587#0" to="-126342417#0" type='truck'/>
    <trip id="218" depart="2411.11" from="-29377703#2" to="51060360" type='truck'/>
    <trip id="219" depart="2422.22" from="118783741#2" to="369891483" type='truck'/>
    <trip id="220" depart="2433.33" from="22751838#7" to="945948200#0" type='truck'/>
    <trip id="221" depart="2444.44" from="160192382#0" to="846779439#0" type='truck'/>
    <trip id="222" depart="2455.56" from="704746729#2" to="161754857#1" type='truck'/>
    <trip id="223" depart="2466.67" from="28343791#0" to="126350685#2" type='truck'/>
    <trip id="224" depart="2477.78" from="4588648#2" to="15785418#5" type='truck'/>
    <trip id="225" depart="2488.89" from="71940900#4" to="29170670#0" type='truck'/>
    <trip id="226" depart="2500.00" from="1216781216" to="-303412427#18" type='truck'/>
    <trip id="227" depart="2511.11" from="-29257171#2" to="186714048#1" type='truck'/>
    <trip id="228" depart="2522.22" from="303412427#15" to="136822601#1" type='truck'/>
    <trip id="229" depart="2533.33" from="176435849" to="-34544780#2" type='truck'/>
    <trip id="230" depart="2544.44" from="-15785418#4" to="-4332734#4" type='truck'/>
    <trip id="231" depart="2555.56" from="-303412430" to="-626683786" type='truck'/>
    <trip id="232" depart="2566.67" from="154644806#6" to="-176435846#0" type='truck'/>
    <trip id="233" depart="2577.78" from="-28788771#7" to="24247933" type='truck'/>
    <trip id="234" depart="2588.89" from="24509303#5" to="-154644806#0" type='truck'/>
    <trip id="235" depart="2600.00" from="1072780237" to="154644810#1" type='truck'/>
    <trip id="236" depart="2611.11" from="107396685#0" to="-255984629#2" type='truck'/>
    <trip id="237" depart="2622.22" from="107396685#6" to="745183365#0" type='truck'/>
    <trip id="238" depart="2633.33" from="160192333#1" to="24248377#2" type='truck'/>
    <trip id="239" depart="2644.44" from="563377901" to="303412427#14" type='truck'/>
    <trip id="240" depart="2655.56" from="1013988594-AddedOffRampEdge" to="-1068109073#2" type='truck'/>
    <trip id="241" depart="2666.67" from="-836645498" to="29377703#2" type='truck'/>
    <trip id="242" depart="2677.78" from="563377895#0" to="8598773#1" type='truck'/>
    <trip id="243" depart="2688.89" from="107396685#5" to="29254795#0" type='truck'/>
    <trip id="244" depart="2700.00" from="15785418#2" to="16174062#2" type='truck'/>
    <trip id="245" depart="2711.11" from="-28343791#0" to="-28404072#0" type='truck'/>
    <trip id="246" depart="2722.22" from="1086907966" to="-1110672543" type='truck'/>
    <trip id="247" depart="2733.33" from="-820063586" to="24164989#10" type='truck'/>
    <trip id="248" depart="2744.44" from="1072028684#0" to="-22751224#3" type='truck'/>
    <trip id="249" depart="2755.56" from="119883577#9" to="-16174062#2" type='truck'/>
    <trip id="250" depart="2766.67" from="176435844#6" to="-1085331331#1" type='truck'/>
    <trip id="251" depart="2777.78" from="1068364362" to="15785441#5" type='truck'/>
    <trip id="252" depart="2788.89" from="-1076442002" to="187486758#0" type='truck'/>
    <trip id="253" depart="2800.00" from="-176435844#0" to="119420241#2" type='truck'/>
    <trip id="254" depart="2811.11" from="-12449345#0" to="1019463922" type='truck'/>
    <trip id="255" depart="2822.22" from="-255984629#2" to="-697247928#0" type='truck'/>
    <trip id="256" depart="2833.33" from="303412427#1" to="1035321070#1" type='truck'/>
    <trip id="257" depart="2844.44" from="29377703#0" to="4588648#1" type='truck'/>
    <trip id="258" depart="2855.56" from="-29378777#3" to="-15785430#1" type='truck'/>
    <trip id="259" depart="2866.67" from="-107396685#0" to="154644806#4" type='truck'/>
    <trip id="260" depart="2877.78" from="9867184" to="-8598773#0" type='truck'/>
    <trip id="261" depart="2888.89" from="22751162" to="310627474#0" type='truck'/>
    <trip id="262" depart="2900.00" from="22751166#1" to="29377703#3" type='truck'/>
    <trip id="263" depart="2911.11" from="8598773#0" to="-24248525" type='truck'/>
    <trip id="264" depart="2922.22" from="-107396685#2" to="-187486758#5" type='truck'/>
    <trip id="265" depart="2933.33" from="-160192383#0" to="24158358#1" type='truck'/>
    <trip id="266" depart="2944.44" from="15785441#5" to="-28347151#0" type='truck'/>
    <trip id="267" depart="2955.56" from="24248460" to="303412427#16" type='truck'/>
    <trip id="268" depart="2966.67" from="-22751224#4" to="161754854#0" type='truck'/>
    <trip id="269" depart="2977.78" from="29254795#0" to="-160192346#0" type='truck'/>
    <trip id="270" depart="2988.89" from="4332734#4" to="908668116#3" type='truck'/>
    <trip id="271" depart="3000.00" from="-15785471#0" to="-1076637536" type='truck'/>
    <trip id="272" depart="3011.11" from="-575729108#1" to="24164967#1" type='truck'/>
    <trip id="273" depart="3022.22" from="896605460" to="1069841144#0" type='truck'/>
    <trip id="274" depart="3033.33" from="262409052#0" to="-15785418#3" type='truck'/>
    <trip id="275" depart="3044.44" from="24247907" to="176438187" type='truck'/>
    <trip id="276" depart="3055.56" from="-15785456#0" to="303412427#6" type='truck'/>
    <trip id="277" depart="3066.67" from="54338771#1" to="160192388#1" type='truck'/>
    <trip id="278" depart="3077.78" from="-160192360#0" to="931318687" type='truck'/>
    <trip id="279" depart="3088.89" from="310627474#2" to="-846779439#0" type='truck'/>
    <trip id="280" depart="3100.00" from="1076442002" to="-9495515#0" type='truck'/>
    <trip id="281" depart="3111.11" from="132686162" to="-82694042#4" type='truck'/>
    <trip id="282" depart="3122.22" from="54338771#0" to="4332734#6" type='truck'/>
    <trip id="283" depart="3133.33" from="-15785462#2" to="908668114#0" type='truck'/>
    <trip id="284" depart="3144.44" from="182972260" to="4588647#3" type='truck'/>
    <trip id="285" depart="3155.56" from="255984629#0" to="1085338842" type='truck'/>
    <trip id="286" depart="3166.67" from="28788771#7" to="908668117" type='truck'/>
    <trip id="287" depart="3177.78" from="-303412427#9" to="420657996" type='truck'/>
    <trip id="288" depart="3188.89" from="154644806#3" to="12254923#6" type='truck'/>
    <trip id="289" depart="3200.00" from="1086907966" to="28788650#1" type='truck'/>
    <trip id="290" depart="3211.11" from="-303412427#6" to="54338771#1" type='truck'/>
    <trip id="291" depart="3222.22" from="4588648#2" to="-15785439#4" type='truck'/>
    <trip id="292" depart="3233.33" from="685156794#1" to="-29257171#1" type='truck'/>
    <trip id="293" depart="3244.44" from="119883577#6" to="161754855#1" type='truck'/>
    <trip id="294" depart="3255.56" from="-960721731#3" to="-1110672543" type='truck'/>
    <trip id="295" depart="3266.67" from="54338771#2" to="-24164967#1" type='truck'/>
    <trip id="296" depart="3277.78" from="-255984629#3" to="369686016#2" type='truck'/>
    <trip id="297" depart="3288.89" from="-825090424#3" to="675865742#1" type='truck'/>
    <trip id="298" depart="3300.00" from="24248525" to="-354449750" type='truck'/>
    <trip id="299" depart="3311.11" from="-1069829005#2" to="836645491" type='truck'/>
    <trip id="300" depart="3322.22" from="-15785436#1" to="28343791#0" type='truck'/>
    <trip id="301" depart="3333.33" from="12450267#0" to="29378777#5" type='truck'/>
    <trip id="302" depart="3344.44" from="24247907" to="187489436#1" type='truck'/>
    <trip id="303" depart="3355.56" from="126342417#1" to="34546416" type='truck'/>
    <trip id="304" depart="3366.67" from="-15785441#4" to="-28404170#0" type='truck'/>
    <trip id="305" depart="3377.78" from="24247912" to="-563377901" type='truck'/>
    <trip id="306" depart="3388.89" from="15833895#1" to="1216781214#2" type='truck'/>
    <trip id="307" depart="3400.00" from="154644771#0" to="1076102777" type='truck'/>
    <trip id="308" depart="3411.11" from="29170675#1" to="-820063576" type='truck'/>
    <trip id="309" depart="3422.22" from="24509303#0" to="-303412434" type='truck'/>
    <trip id="310" depart="3433.33" from="-29378777#0" to="-160192382#0" type='truck'/>
    <trip id="311" depart="3444.44" from="-24247890" to="-160192379" type='truck'/>
    <trip id="312" depart="3455.56" from="154644806#0" to="303412427#10" type='truck'/>
    <trip id="313" depart="3466.67" from="-24164989#0" to="-28343787#2" type='truck'/>
    <trip id="314" depart="3477.78" from="12255025#1" to="28404170#0" type='truck'/>
    <trip id="315" depart="3488.89" from="923261417#0" to="13866859#4" type='truck'/>
    <trip id="316" depart="3500.00" from="-370372822" to="-15785456#2" type='truck'/>
    <trip id="317" depart="3511.11" from="-24247912" to="-28788669" type='truck'/>
    <trip id="318" depart="3522.22" from="-24158358#2" to="-1069841148" type='truck'/>
    <trip id="319" depart="3533.33" from="154644778#0" to="-34544780#2" type='truck'/>
    <trip id="320" depart="3544.44" from="917450547#2" to="15785430#0" type='truck'/>
    <trip id="321" depart="3555.56" from="24248441#0" to="-16174062#0" type='truck'/>
    <trip id="322" depart="3566.67" from="615456193#0" to="12450267#1" type='truck'/>
    <trip id="323" depart="3577.78" from="615478342" to="15785456#2" type='truck'/>
    <trip id="324" depart="3588.89" from="121188635" to="1127952094#0" type='truck'/>
</routes>
