<?xml version="1.0" encoding="UTF-8"?>

<!-- generated on 2024-05-20 21:10:05.495045 by randomTrips.py v1_19_0+0000-baa66a0f364
<configuration>
    <net-file value="boni kalentong/boni-kalentong.net.xml"/>
    <output-trip-file value="boni kalentong/boni-kalentong.trips.xml"/>
    <end value="400.0"/>
</configuration>
-->

<routes xmlns:xsi="http://www.w3.org/2001/XMLSchema-instance" xsi:noNamespaceSchemaLocation="http://sumo.dlr.de/xsd/routes_file.xsd">
    <trip id="0" depart="0.00" from="29256254#1" to="-1082812990"/>
    <trip id="1" depart="1.00" from="-674854148#0" to="-439851133#0"/>
    <trip id="2" depart="2.00" from="560751935#2" to="395299122#1"/>
    <trip id="3" depart="3.00" from="771352870#1" to="-21999933"/>
    <trip id="4" depart="4.00" from="1086908137" to="-1172606359"/>
    <trip id="5" depart="5.00" from="-421060893#2" to="208167698#3"/>
    <trip id="6" depart="6.00" from="-1088060314#0" to="-32338959#4"/>
    <trip id="7" depart="7.00" from="29373833#0" to="22598192#1"/>
    <trip id="8" depart="8.00" from="-4263563#4" to="254835231#1"/>
    <trip id="9" depart="9.00" from="695563569#0" to="-104217382#1"/>
    <trip id="10" depart="10.00" from="694947935#0" to="4263566#1"/>
    <trip id="11" depart="11.00" from="-776479158#0" to="-27788455#0"/>
    <trip id="12" depart="12.00" from="82710486#1" to="-777146052"/>
    <trip id="13" depart="13.00" from="-22000257#0" to="-22000514#3"/>
    <trip id="14" depart="14.00" from="696543595" to="29126188#3"/>
    <trip id="15" depart="15.00" from="695531897" to="560751935#2"/>
    <trip id="16" depart="16.00" from="22001148#1" to="925017217#0"/>
    <trip id="17" depart="17.00" from="-924628755" to="22598217#1"/>
    <trip id="18" depart="18.00" from="695892074#1" to="29255471#3"/>
    <trip id="19" depart="19.00" from="705423536#8" to="22673864#1"/>
    <trip id="20" depart="20.00" from="4263566#1" to="-133346720#0"/>
    <trip id="21" depart="21.00" from="-4483983#1" to="-695915143#0"/>
    <trip id="22" depart="22.00" from="-203403545#2" to="-4847952#1"/>
    <trip id="23" depart="23.00" from="-22000664#4" to="-687897202#0"/>
    <trip id="24" depart="24.00" from="29255778#3" to="-842912153#0"/>
    <trip id="25" depart="25.00" from="-82710486#4" to="-369698668#1"/>
    <trip id="26" depart="26.00" from="-612314867#1" to="82695263#3"/>
    <trip id="27" depart="27.00" from="29369237" to="29169701"/>
    <trip id="28" depart="28.00" from="-29221865" to="560751935#1"/>
    <trip id="29" depart="29.00" from="-29126188#2" to="-999311048"/>
    <trip id="30" depart="30.00" from="96910969#4" to="29257171#1"/>
    <trip id="31" depart="31.00" from="22598209" to="419372463#1"/>
    <trip id="32" depart="32.00" from="696300676" to="624159306"/>
    <trip id="33" depart="33.00" from="-449474757" to="-1190285018"/>
    <trip id="34" depart="34.00" from="-697662734#1" to="-624159310"/>
    <trip id="35" depart="35.00" from="-369698668#0" to="82698821#2"/>
    <trip id="36" depart="36.00" from="771088872" to="-770524953"/>
    <trip id="37" depart="37.00" from="30302619#3" to="105827664#0"/>
    <trip id="38" depart="38.00" from="776479227" to="133452689#6"/>
    <trip id="39" depart="39.00" from="-610523870" to="-60012034#1"/>
    <trip id="40" depart="40.00" from="22598222" to="-610523902#0"/>
    <trip id="41" depart="41.00" from="22673864#2" to="774961198#1"/>
    <trip id="42" depart="42.00" from="104217382#0" to="-4263573#6"/>
    <trip id="43" depart="43.00" from="98686050#2" to="21999532#1"/>
    <trip id="44" depart="44.00" from="-22000188#0" to="-133452689#1"/>
    <trip id="45" depart="45.00" from="-22598183" to="29255774"/>
    <trip id="46" depart="46.00" from="675153435#2" to="112549084#1"/>
    <trip id="47" depart="47.00" from="-15834188#0" to="1019747408"/>
    <trip id="48" depart="48.00" from="98686047#1" to="22001148#0"/>
    <trip id="49" depart="49.00" from="911079652#0" to="749948774#0"/>
    <trip id="50" depart="50.00" from="-105827664#1" to="4847949#12"/>
    <trip id="51" depart="51.00" from="379710955" to="224149785#1"/>
    <trip id="52" depart="52.00" from="-612314867#0" to="29373565"/>
    <trip id="53" depart="53.00" from="-22598192#0" to="1180602457"/>
    <trip id="54" depart="54.00" from="1222984004#1" to="82710486#0"/>
    <trip id="55" depart="55.00" from="771088868#1" to="-610563740"/>
    <trip id="56" depart="56.00" from="203403536#5" to="-29255778#0"/>
    <trip id="57" depart="57.00" from="776324539" to="771081537#0"/>
    <trip id="58" depart="58.00" from="-696080887#1" to="29256863#1"/>
    <trip id="59" depart="59.00" from="29126188#2" to="-27788226#3"/>
    <trip id="60" depart="60.00" from="601166077#1" to="22598176#2"/>
    <trip id="61" depart="61.00" from="617516539#1" to="22001216#0"/>
    <trip id="62" depart="62.00" from="-1019747409" to="-77339513#1"/>
    <trip id="63" depart="63.00" from="-106738220#1" to="82694047#2"/>
    <trip id="64" depart="64.00" from="771098665#1" to="696080886#1"/>
    <trip id="65" depart="65.00" from="-696561455#2" to="-15833940#4"/>
    <trip id="66" depart="66.00" from="771098665#0" to="82699567"/>
    <trip id="67" depart="67.00" from="-21999831#0" to="182108114#1"/>
    <trip id="68" depart="68.00" from="-180359791#5" to="60133631#0"/>
    <trip id="69" depart="69.00" from="60133630#2" to="-22650427"/>
    <trip id="70" depart="70.00" from="151820394" to="22598208#1"/>
    <trip id="71" depart="71.00" from="-610523902#0" to="771088868#0"/>
    <trip id="72" depart="72.00" from="1089435696" to="-38609476#1"/>
    <trip id="73" depart="73.00" from="22001376#1" to="560751935#3"/>
    <trip id="74" depart="74.00" from="-336113802" to="-700453679#2"/>
    <trip id="75" depart="75.00" from="98562692" to="30794080"/>
    <trip id="76" depart="76.00" from="1176481236#1" to="22000238"/>
    <trip id="77" depart="77.00" from="-22598230#0" to="-439851133#4"/>
    <trip id="78" depart="78.00" from="-776059145" to="254453300#0"/>
    <trip id="79" depart="79.00" from="-4847949#1" to="-4263575#1"/>
    <trip id="80" depart="80.00" from="-183691269#2" to="29256253#3"/>
    <trip id="81" depart="81.00" from="-449474757" to="776059145"/>
    <trip id="82" depart="82.00" from="700453679#3" to="-196060912#0"/>
    <trip id="83" depart="83.00" from="-560751935#1" to="36438924#0"/>
    <trip id="84" depart="84.00" from="-395299122#1" to="-22650447"/>
    <trip id="85" depart="85.00" from="82694987" to="22650493"/>
    <trip id="86" depart="86.00" from="146321343#0" to="674854148#0"/>
    <trip id="87" depart="87.00" from="695547158" to="-29369240"/>
    <trip id="88" depart="88.00" from="-22000401#1" to="1176481236#1"/>
    <trip id="89" depart="89.00" from="1089435698" to="146336920#0"/>
    <trip id="90" depart="90.00" from="4847949#4" to="369698668#2"/>
    <trip id="91" depart="91.00" from="953212837#0" to="-22000664#3"/>
    <trip id="92" depart="92.00" from="105431463#4" to="-791195493#2"/>
    <trip id="93" depart="93.00" from="705423536#8" to="-60012676#1"/>
    <trip id="94" depart="94.00" from="-29256525#1" to="123990818"/>
    <trip id="95" depart="95.00" from="1086908137" to="-687897202#1"/>
    <trip id="96" depart="96.00" from="-60012674" to="820063521#1"/>
    <trip id="97" depart="97.00" from="1181089629" to="749948774#1"/>
    <trip id="98" depart="98.00" from="22598190#1" to="-145224326#0"/>
    <trip id="99" depart="99.00" from="999309360#0" to="696123119"/>
    <trip id="100" depart="100.00" from="901609288" to="82694042#0"/>
    <trip id="101" depart="101.00" from="696561456" to="-29169701"/>
    <trip id="102" depart="102.00" from="158626343#1" to="-39726581#0"/>
    <trip id="103" depart="103.00" from="104217382#4" to="-15833957#1"/>
    <trip id="104" depart="104.00" from="-930946681#0" to="95602877#0"/>
    <trip id="105" depart="105.00" from="-610523902#0" to="674854147#3"/>
    <trip id="106" depart="106.00" from="123990816#1" to="112549084#3"/>
    <trip id="107" depart="107.00" from="82710486#2" to="98562694"/>
    <trip id="108" depart="108.00" from="22598206#2" to="449474759"/>
    <trip id="109" depart="109.00" from="-26976120#1" to="-696300675"/>
    <trip id="110" depart="110.00" from="901609287" to="22673864#7"/>
    <trip id="111" depart="111.00" from="22001749#0" to="60012586#0"/>
    <trip id="112" depart="112.00" from="-151820395#3" to="226829306#2"/>
    <trip id="113" depart="113.00" from="203403538#5" to="697662733#0"/>
    <trip id="114" depart="114.00" from="-27788286#2" to="880140124#0"/>
    <trip id="115" depart="115.00" from="-203403545#3" to="-29256360#5"/>
    <trip id="116" depart="116.00" from="254453300#0" to="38609476#1"/>
    <trip id="117" depart="117.00" from="-4847952#1" to="-22650402#0"/>
    <trip id="118" depart="118.00" from="771352866" to="-60012034#0"/>
    <trip id="119" depart="119.00" from="250263142#1" to="29255519#1"/>
    <trip id="120" depart="120.00" from="1076894339#0" to="226829306#1"/>
    <trip id="121" depart="121.00" from="22000188#1" to="82695261#1"/>
    <trip id="122" depart="122.00" from="-34368379#2" to="4483981#6"/>
    <trip id="123" depart="123.00" from="-560751935#3" to="105827664#0"/>
    <trip id="124" depart="124.00" from="34368380" to="-696300688#5"/>
    <trip id="125" depart="125.00" from="-700453679#0" to="60012675"/>
    <trip id="126" depart="126.00" from="-183691269#8" to="133452689#3"/>
    <trip id="127" depart="127.00" from="98686051" to="98686047#1"/>
    <trip id="128" depart="128.00" from="-196060912#0" to="-39726554#1"/>
    <trip id="129" depart="129.00" from="-610523902#0" to="82694989#2"/>
    <trip id="130" depart="130.00" from="771098669" to="771098674#1"/>
    <trip id="131" depart="131.00" from="-82710486#2" to="-287007447"/>
    <trip id="132" depart="132.00" from="695915143#4" to="4263577#1"/>
    <trip id="133" depart="133.00" from="29126218#0" to="96910968#1"/>
    <trip id="134" depart="134.00" from="301874690#3" to="-104217382#4"/>
    <trip id="135" depart="135.00" from="695761946#1" to="-696300688#4"/>
    <trip id="136" depart="136.00" from="30989062" to="82698562"/>
    <trip id="137" depart="137.00" from="-22650447" to="-22598215#1"/>
    <trip id="138" depart="138.00" from="-22001498#1" to="22598220#0"/>
    <trip id="139" depart="139.00" from="-64281699" to="29126210#1"/>
    <trip id="140" depart="140.00" from="439851133#4" to="-34368381#2"/>
    <trip id="141" depart="141.00" from="29255774" to="-612314867#0"/>
    <trip id="142" depart="142.00" from="180359791#0" to="776059142"/>
    <trip id="143" depart="143.00" from="696362804" to="-22000280#0"/>
    <trip id="144" depart="144.00" from="1089435698" to="-680275200#3"/>
    <trip id="145" depart="145.00" from="-103094579#1" to="615459154#1"/>
    <trip id="146" depart="146.00" from="29256253#0" to="-610523503#4"/>
    <trip id="147" depart="147.00" from="56672072#2" to="22598217#0"/>
    <trip id="148" depart="148.00" from="1120004252" to="-105431463#4"/>
    <trip id="149" depart="149.00" from="-203403538#1" to="771306220"/>
    <trip id="150" depart="150.00" from="774977236#2" to="22598192#3"/>
    <trip id="151" depart="151.00" from="696080880" to="226829299#3"/>
    <trip id="152" depart="152.00" from="-226829306#2" to="-22650425#3"/>
    <trip id="153" depart="153.00" from="-696561457" to="774961201"/>
    <trip id="154" depart="154.00" from="676215736#0" to="749948774#0"/>
    <trip id="155" depart="155.00" from="77339513#1" to="-371693258#0"/>
    <trip id="156" depart="156.00" from="-60012588#2" to="-22001216#2"/>
    <trip id="157" depart="157.00" from="624159306" to="771313796#2"/>
    <trip id="158" depart="158.00" from="1059143355" to="29255603#1"/>
    <trip id="159" depart="159.00" from="-26976120#0" to="82694047#4"/>
    <trip id="160" depart="160.00" from="749948774#0" to="934263411#0"/>
    <trip id="161" depart="161.00" from="695753232" to="771123443#1"/>
    <trip id="162" depart="162.00" from="-1079338777" to="56672144#1"/>
    <trip id="163" depart="163.00" from="-774961198#2" to="82694984"/>
    <trip id="164" depart="164.00" from="685987845#0" to="769765203#0"/>
    <trip id="165" depart="165.00" from="695753232" to="-624159306"/>
    <trip id="166" depart="166.00" from="674854147#0" to="-22598185"/>
    <trip id="167" depart="167.00" from="770553708" to="705423536#8"/>
    <trip id="168" depart="168.00" from="-4263575#0" to="695777127#1"/>
    <trip id="169" depart="169.00" from="133342135#0" to="-696567051#3"/>
    <trip id="170" depart="170.00" from="676215733#0" to="-4847949#1"/>
    <trip id="171" depart="171.00" from="-1076894339#0" to="-29373970#2"/>
    <trip id="172" depart="172.00" from="-771367202#3" to="769765203#1"/>
    <trip id="173" depart="173.00" from="894810479" to="-694268908"/>
    <trip id="174" depart="174.00" from="29256360#2" to="1064271728#1"/>
    <trip id="175" depart="175.00" from="942412873#2" to="22001749#1"/>
    <trip id="176" depart="176.00" from="82695263#0" to="-22598215#1"/>
    <trip id="177" depart="177.00" from="905236957#0" to="-29255774"/>
    <trip id="178" depart="178.00" from="85691300#4" to="-615459151#1"/>
    <trip id="179" depart="179.00" from="-22598176#1" to="1180602456"/>
    <trip id="180" depart="180.00" from="4847949#2" to="-769765203#0"/>
    <trip id="181" depart="181.00" from="287007445" to="21999831#1"/>
    <trip id="182" depart="182.00" from="-96910969#1" to="22673861#3"/>
    <trip id="183" depart="183.00" from="-601166077#1" to="438657362"/>
    <trip id="184" depart="184.00" from="-103093186#3" to="820063596"/>
    <trip id="185" depart="185.00" from="22001352" to="4847949#0"/>
    <trip id="186" depart="186.00" from="56672072#5" to="369676569#1"/>
    <trip id="187" depart="187.00" from="-82699561#2" to="-183691275"/>
    <trip id="188" depart="188.00" from="30989094" to="-774977236#4"/>
    <trip id="189" depart="189.00" from="-697650791#1" to="696793622"/>
    <trip id="190" depart="190.00" from="445233813#6" to="-696362804"/>
    <trip id="191" depart="191.00" from="-696567051#1" to="1074053384"/>
    <trip id="192" depart="192.00" from="105431463#3" to="-696123118"/>
    <trip id="193" depart="193.00" from="-22650423#4" to="1120004254#1"/>
    <trip id="194" depart="194.00" from="82695263#3" to="39726554#0"/>
    <trip id="195" depart="195.00" from="774977235#3" to="29224479#4"/>
    <trip id="196" depart="196.00" from="-696123123" to="22598204"/>
    <trip id="197" depart="197.00" from="-1019747409" to="-695887168"/>
    <trip id="198" depart="198.00" from="112549084#1" to="22673873#1"/>
    <trip id="199" depart="199.00" from="30302619#1" to="145224326#3"/>
    <trip id="200" depart="200.00" from="1180602457" to="-39726577"/>
    <trip id="201" depart="201.00" from="146321343#2" to="774977236#1"/>
    <trip id="202" depart="202.00" from="676215733#1" to="-29224479#0"/>
    <trip id="203" depart="203.00" from="-21999532#3" to="21999968#1"/>
    <trip id="204" depart="204.00" from="29255734#2" to="-776843063"/>
    <trip id="205" depart="205.00" from="695777111#1" to="60012592#3"/>
    <trip id="206" depart="206.00" from="34368381#2" to="-439851133#4"/>
    <trip id="207" depart="207.00" from="-32338959#0" to="-1076894339#1"/>
    <trip id="208" depart="208.00" from="-60012030#0" to="15833957#2"/>
    <trip id="209" depart="209.00" from="696561458" to="-203403538#1"/>
    <trip id="210" depart="210.00" from="1069118940" to="29255780#1"/>
    <trip id="211" depart="211.00" from="-29373970#0" to="4263563#0"/>
    <trip id="212" depart="212.00" from="183691269#6" to="-60012030#2"/>
    <trip id="213" depart="213.00" from="30411277#1" to="-10413927#1"/>
    <trip id="214" depart="214.00" from="60012030#0" to="615459151#0"/>
    <trip id="215" depart="215.00" from="-22001498#0" to="112651126#4"/>
    <trip id="216" depart="216.00" from="-29255471#0" to="85691299#2"/>
    <trip id="217" depart="217.00" from="21999831#2" to="-143174219"/>
    <trip id="218" depart="218.00" from="-60012588#1" to="696889208#0"/>
    <trip id="219" depart="219.00" from="132686162" to="694947935#1"/>
    <trip id="220" depart="220.00" from="336113802" to="96910969#0"/>
    <trip id="221" depart="221.00" from="254453300#1" to="82699572#3"/>
    <trip id="222" depart="222.00" from="771352869#0" to="29221870"/>
    <trip id="223" depart="223.00" from="445233813#5" to="208167698#1"/>
    <trip id="224" depart="224.00" from="695892080#2" to="22598204"/>
    <trip id="225" depart="225.00" from="772008789" to="60009797"/>
    <trip id="226" depart="226.00" from="148763273" to="-60133636#2"/>
    <trip id="227" depart="227.00" from="-60012032#1" to="29256498"/>
    <trip id="228" depart="228.00" from="60133630#2" to="22000331#1"/>
    <trip id="229" depart="229.00" from="29255519#2" to="-675153437#1"/>
    <trip id="230" depart="230.00" from="-203403539#2" to="-695883275#0"/>
    <trip id="231" depart="231.00" from="-624159307" to="-771317202#3"/>
    <trip id="232" depart="232.00" from="22001435#1" to="-22673861#3"/>
    <trip id="233" depart="233.00" from="-4847949#12" to="4263558#8"/>
    <trip id="234" depart="234.00" from="4263567#2" to="-180359791#1"/>
    <trip id="235" depart="235.00" from="1064224869" to="22598188"/>
    <trip id="236" depart="236.00" from="107326713#5" to="-368461882#0"/>
    <trip id="237" depart="237.00" from="1076894343" to="776059141"/>
    <trip id="238" depart="238.00" from="22673864#1" to="4263562#0"/>
    <trip id="239" depart="239.00" from="697662733#2" to="610523503#1"/>
    <trip id="240" depart="240.00" from="-934101924" to="-10413927#2"/>
    <trip id="241" depart="241.00" from="-82694989#2" to="60012676#4"/>
    <trip id="242" depart="242.00" from="697255101#1" to="82699760#1"/>
    <trip id="243" depart="243.00" from="1076894339#0" to="60012034#1"/>
    <trip id="244" depart="244.00" from="22598176#1" to="29126188#2"/>
    <trip id="245" depart="245.00" from="-4263563#4" to="-4263573#6"/>
    <trip id="246" depart="246.00" from="1173862892" to="-112549084#2"/>
    <trip id="247" depart="247.00" from="-774977236#3" to="39726581#1"/>
    <trip id="248" depart="248.00" from="105827664#1" to="-29169564#4"/>
    <trip id="249" depart="249.00" from="133452689#8" to="-22650426#0"/>
    <trip id="250" depart="250.00" from="29255098#0" to="-1089452243"/>
    <trip id="251" depart="251.00" from="103093186#7" to="22650425#0"/>
    <trip id="252" depart="252.00" from="-1089435698" to="29373970#0"/>
    <trip id="253" depart="253.00" from="-22673841" to="143174220#0"/>
    <trip id="254" depart="254.00" from="-133452689#5" to="-98686052"/>
    <trip id="255" depart="255.00" from="-369698668#2" to="-774961201"/>
    <trip id="256" depart="256.00" from="60116130#0" to="-98686052"/>
    <trip id="257" depart="257.00" from="60012030#3" to="696080886#2"/>
    <trip id="258" depart="258.00" from="-60012676#4" to="-21999532#2"/>
    <trip id="259" depart="259.00" from="-106738220#0" to="22598176#2"/>
    <trip id="260" depart="260.00" from="999311048" to="-82695263#3"/>
    <trip id="261" depart="261.00" from="29373833#1" to="671955929"/>
    <trip id="262" depart="262.00" from="29397157#0" to="60013028#0"/>
    <trip id="263" depart="263.00" from="82699561#1" to="-34367681"/>
    <trip id="264" depart="264.00" from="-1069118938#0" to="-27788226#2"/>
    <trip id="265" depart="265.00" from="-22650423#1" to="36438924#1"/>
    <trip id="266" depart="266.00" from="22650396#4" to="-4263573#1"/>
    <trip id="267" depart="267.00" from="4263558#3" to="610523870"/>
    <trip id="268" depart="268.00" from="-29169564#4" to="29169564#2"/>
    <trip id="269" depart="269.00" from="59917103#6" to="-22598210"/>
    <trip id="270" depart="270.00" from="695777113#1" to="894810479"/>
    <trip id="271" depart="271.00" from="-22001749#1" to="-1088060314#0"/>
    <trip id="272" depart="272.00" from="-696889211" to="39726554#0"/>
    <trip id="273" depart="273.00" from="8326738" to="105827666#0"/>
    <trip id="274" depart="274.00" from="438657303" to="-203403539#5"/>
    <trip id="275" depart="275.00" from="419372463#0" to="29255774"/>
    <trip id="276" depart="276.00" from="-22000740" to="615478340#1"/>
    <trip id="277" depart="277.00" from="696567051#1" to="287007445"/>
    <trip id="278" depart="278.00" from="-22598230#0" to="953212835#2"/>
    <trip id="279" depart="279.00" from="64281699" to="-82695261#0"/>
    <trip id="280" depart="280.00" from="1120004254#0" to="-923261417#1"/>
    <trip id="281" depart="281.00" from="203403543#2" to="-82694042#4"/>
    <trip id="282" depart="282.00" from="696561458" to="695892055"/>
    <trip id="283" depart="283.00" from="-22001376#0" to="880140124#0"/>
    <trip id="284" depart="284.00" from="29255778#3" to="695915142"/>
    <trip id="285" depart="285.00" from="4263573#2" to="1181089628#0"/>
    <trip id="286" depart="286.00" from="560744717" to="896904926"/>
    <trip id="287" depart="287.00" from="-616470191" to="695761931#0"/>
    <trip id="288" depart="288.00" from="22001233" to="180359791#1"/>
    <trip id="289" depart="289.00" from="1172606359" to="560751935#6"/>
    <trip id="290" depart="290.00" from="-615459153" to="697650791#0"/>
    <trip id="291" depart="291.00" from="695892080#3" to="-21999933"/>
    <trip id="292" depart="292.00" from="771098671" to="-60012030#1"/>
    <trip id="293" depart="293.00" from="133452689#0" to="29221852#1"/>
    <trip id="294" depart="294.00" from="-930946681#0" to="-112549084#1"/>
    <trip id="295" depart="295.00" from="696567051#3" to="-29256253#2"/>
    <trip id="296" depart="296.00" from="-379710955" to="687897202#0"/>
    <trip id="297" depart="297.00" from="-776479158#0" to="771123441#0"/>
    <trip id="298" depart="298.00" from="4263560" to="-680275200#2"/>
    <trip id="299" depart="299.00" from="-105431463#4" to="82699569#1"/>
    <trip id="300" depart="300.00" from="-21999831#0" to="4847949#10"/>
    <trip id="301" depart="301.00" from="180359791#0" to="60133626"/>
    <trip id="302" depart="302.00" from="419372463#0" to="301874690#3"/>
    <trip id="303" depart="303.00" from="182108111" to="680270790#0"/>
    <trip id="304" depart="304.00" from="-22000257#1" to="-4263588#1"/>
    <trip id="305" depart="305.00" from="419372463#3" to="-696889210"/>
    <trip id="306" depart="306.00" from="22673858" to="15833940#2"/>
    <trip id="307" depart="307.00" from="22000514#2" to="112651126#5"/>
    <trip id="308" depart="308.00" from="586387872#1" to="-776047043"/>
    <trip id="309" depart="309.00" from="4263563#0" to="-674854148#0"/>
    <trip id="310" depart="310.00" from="-60012676#2" to="-22650402#3"/>
    <trip id="311" depart="311.00" from="-29373565" to="-22650400"/>
    <trip id="312" depart="312.00" from="22001148#0" to="60133631#4"/>
    <trip id="313" depart="313.00" from="-29256253#4" to="-4263563#0"/>
    <trip id="314" depart="314.00" from="15834092" to="4847952#1"/>
    <trip id="315" depart="315.00" from="934263411#1" to="22000514#3"/>
    <trip id="316" depart="316.00" from="-694268908" to="-22001073#1"/>
    <trip id="317" depart="317.00" from="-29373833#1" to="-4847949#1"/>
    <trip id="318" depart="318.00" from="-29255734#1" to="-1064224869"/>
    <trip id="319" depart="319.00" from="22000710#1" to="-675153437#0"/>
    <trip id="320" depart="320.00" from="930946681#0" to="22598220#0"/>
    <trip id="321" depart="321.00" from="4263555#1" to="-22650425#0"/>
    <trip id="322" depart="322.00" from="770524952#1" to="196060912#0"/>
    <trip id="323" depart="323.00" from="770553709#1" to="22673856"/>
    <trip id="324" depart="324.00" from="143174220#1" to="1190285018"/>
    <trip id="325" depart="325.00" from="-29256253#2" to="-145224326#2"/>
    <trip id="326" depart="326.00" from="82695263#5" to="15834188#0"/>
    <trip id="327" depart="327.00" from="695881358#1" to="1065716714"/>
    <trip id="328" depart="328.00" from="-196060912#2" to="29255780#1"/>
    <trip id="329" depart="329.00" from="-145224326#3" to="-250263142#0"/>
    <trip id="330" depart="330.00" from="22650396#1" to="-696567051#0"/>
    <trip id="331" depart="331.00" from="98562690#6" to="-22598222"/>
    <trip id="332" depart="332.00" from="60133626" to="29169564#0"/>
    <trip id="333" depart="333.00" from="675153434" to="-4483986#1"/>
    <trip id="334" depart="334.00" from="22000188#0" to="133340447"/>
    <trip id="335" depart="335.00" from="1181089628#1" to="71940900#1"/>
    <trip id="336" depart="336.00" from="96910969#5" to="-696889208#0"/>
    <trip id="337" depart="337.00" from="29224479#2" to="29169703#1"/>
    <trip id="338" depart="338.00" from="56672059#1" to="82699569#0"/>
    <trip id="339" depart="339.00" from="-361353290" to="-38408828"/>
    <trip id="340" depart="340.00" from="30794093" to="-27788483#0"/>
    <trip id="341" depart="341.00" from="-29224479#3" to="-203403539#2"/>
    <trip id="342" depart="342.00" from="-103093186#7" to="133340447"/>
    <trip id="343" depart="343.00" from="24256119" to="-696080886#1"/>
    <trip id="344" depart="344.00" from="-4847949#13" to="43108132#2"/>
    <trip id="345" depart="345.00" from="4263563#0" to="133346717#0"/>
    <trip id="346" depart="346.00" from="39726869#2" to="820063522"/>
    <trip id="347" depart="347.00" from="674854147#1" to="29255603#6"/>
    <trip id="348" depart="348.00" from="30794099#1" to="82694989#3"/>
    <trip id="349" depart="349.00" from="1089452243" to="22598192#0"/>
    <trip id="350" depart="350.00" from="29257171#2" to="776066110"/>
    <trip id="351" depart="351.00" from="695892055" to="-196060912#2"/>
    <trip id="352" depart="352.00" from="-29169477" to="-697255110#1"/>
    <trip id="353" depart="353.00" from="60009795#1" to="22650441#2"/>
    <trip id="354" depart="354.00" from="-695777112" to="-22650423#1"/>
    <trip id="355" depart="355.00" from="417435167#1" to="4263567#2"/>
    <trip id="356" depart="356.00" from="82698566" to="203403543#4"/>
    <trip id="357" depart="357.00" from="183691269#5" to="-20972235#1"/>
    <trip id="358" depart="358.00" from="-123990816#2" to="1176481238#0"/>
    <trip id="359" depart="359.00" from="-771306219#1" to="-60012676#5"/>
    <trip id="360" depart="360.00" from="-22000188#1" to="880140124#4"/>
    <trip id="361" depart="361.00" from="696080886#2" to="22673861#0"/>
    <trip id="362" depart="362.00" from="82699569#0" to="999309360#0"/>
    <trip id="363" depart="363.00" from="34368381#1" to="-674854147#1"/>
    <trip id="364" depart="364.00" from="-123990818" to="601166077#1"/>
    <trip id="365" depart="365.00" from="145224326#0" to="30794089#3"/>
    <trip id="366" depart="366.00" from="776479229#1" to="-29256253#1"/>
    <trip id="367" depart="367.00" from="22673864#4" to="29256360#4"/>
    <trip id="368" depart="368.00" from="182108114#1" to="-22000257#3"/>
    <trip id="369" depart="369.00" from="-82694047#2" to="-776066111"/>
    <trip id="370" depart="370.00" from="34368347#3" to="705423536#6"/>
    <trip id="371" depart="371.00" from="-77339513#1" to="4263558#7"/>
    <trip id="372" depart="372.00" from="-695777111#0" to="82699559#1"/>
    <trip id="373" depart="373.00" from="695761931#2" to="22598209"/>
    <trip id="374" depart="374.00" from="123990816#1" to="-770524953"/>
    <trip id="375" depart="375.00" from="-771313796#0" to="911400850#1"/>
    <trip id="376" depart="376.00" from="105827664#1" to="21999933"/>
    <trip id="377" depart="377.00" from="96910969#0" to="31858858"/>
    <trip id="378" depart="378.00" from="22001749#1" to="1083397550"/>
    <trip id="379" depart="379.00" from="-29256360#4" to="-82699613#1"/>
    <trip id="380" depart="380.00" from="60012592#0" to="29255734#0"/>
    <trip id="381" depart="381.00" from="60012676#5" to="-34368381#2"/>
    <trip id="382" depart="382.00" from="22598186#1" to="82694042#3"/>
    <trip id="383" depart="383.00" from="1176481236#1" to="4263566#1"/>
    <trip id="384" depart="384.00" from="-22598230#1" to="925017217#0"/>
    <trip id="385" depart="385.00" from="29126188#2" to="-575455034#0"/>
    <trip id="386" depart="386.00" from="-27788370#1" to="22598215#0"/>
    <trip id="387" depart="387.00" from="22598192#2" to="-22000331#0"/>
    <trip id="388" depart="388.00" from="98562690#1" to="776479228#1"/>
    <trip id="389" depart="389.00" from="133346717#0" to="-22598220#0"/>
    <trip id="390" depart="390.00" from="695892081#3" to="203403539#4"/>
    <trip id="391" depart="391.00" from="439851133#1" to="21999532#0"/>
    <trip id="392" depart="392.00" from="-674854147#0" to="696097621#1"/>
    <trip id="393" depart="393.00" from="942412873#0" to="-60012030#1"/>
    <trip id="394" depart="394.00" from="22598190#3" to="103093186#0"/>
    <trip id="395" depart="395.00" from="790633297" to="20972253"/>
    <trip id="396" depart="396.00" from="771098666#1" to="769765203#0"/>
    <trip id="397" depart="397.00" from="-675092750#1" to="676215732#2"/>
    <trip id="398" depart="398.00" from="107326713#3" to="82695261#0"/>
    <trip id="399" depart="399.00" from="203403543#6" to="695887169"/>
</routes>
