<?xml version="1.0" encoding="UTF-8"?>

<!-- generated on 2024-05-20 21:12:24 by Eclipse SUMO duarouter Version 1.19.0
<configuration xmlns:xsi="http://www.w3.org/2001/XMLSchema-instance" xsi:noNamespaceSchemaLocation="http://sumo.dlr.de/xsd/duarouterConfiguration.xsd">

    <input>
        <net-file value="boni kalentong/boni-kalentong.net.xml"/>
        <route-files value="boni kalentong/boni-kalentong.trips.xml"/>
    </input>

    <output>
        <output-file value="boni kalentong/boni-kalentong.route.xml"/>
    </output>

    <report>
        <ignore-errors value="true"/>
    </report>

</configuration>
-->

<routes xmlns:xsi="http://www.w3.org/2001/XMLSchema-instance" xsi:noNamespaceSchemaLocation="http://sumo.dlr.de/xsd/routes_file.xsd">
    <vehicle id="0" depart="0.00">
        <route edges="29256254#1 -29256253#2 -29256253#1 -1082812990"/>
    </vehicle>
    <vehicle id="1" depart="1.00">
        <route edges="-674854148#0 -82694047#5 -82694047#4 -82694047#3 -82694047#2 -82694047#1 82694047#1 82694047#2 82694047#3 82694047#4 82694047#5 674854148#0 674854148#1 1088060314#0 1088060314#1 934078703 771367204#0 771367204#1 776059142 776059139 98686051 776060308#0 776060309#1 776061216 771376983#0 934338885 695563569#0 417435166#1 771352869#0 695881358#1 695777126 695777127#1 695777127#2 771088865#0 399016689 771081537#0 771081537#1 664749270 771088879 771088880 771088872 -771088878 -21999831#2 -21999831#1 22000238 439851133#0 -439851133#0"/>
    </vehicle>
    <vehicle id="2" depart="2.00">
        <route edges="560751935#2 560751935#3 560751935#4 560751935#5 560751935#6 560751935#7 560751935#8 29255603#4 29255603#5 29255603#6 29255603#7 1083397550 445233813#2 445233813#3 445233813#4 445233813#5 445233813#6 445233813#7 1177719370 -1177719371 -1177719373 -35068820#1 -22000514#3 -122127090#5 -122127090#4 -122127090#3 -122127090#2 -122127090#1 -122127090#0 680270789 22001435#0 22001435#1 395299122#0 395299122#1"/>
    </vehicle>
    <vehicle id="3" depart="3.00">
        <route edges="771352870#1 4483981#0 4483981#1 4483981#2 4483981#3 4483981#4 4483981#5 4483981#6 771108912 771098665#0 771098665#1 771098674#0 771098674#1 664749270 771088879 771088880 771088872 -771088878 -696561456 -770547924#1 -21999838#4 -696561455#2 -21999933"/>
    </vehicle>
    <vehicle id="4" depart="4.00">
        <route edges="1086908137 22673845#0 22673845#1 22673845#2 21999532#4 133340445#0 133340445#1 774961203#1 774961202 133340462#0 133340462#2 133340462#3 -133340463#0 -770524952#1 -770524952#0 -770524953 -770524954 -772227285 22650396#0 22650396#1 22650396#2 22650396#3 22650396#4 22650396#5 369676569#0 369676569#1 369676569#2 4483986#1 4483986#2 -1172606359"/>
    </vehicle>
    <vehicle id="6" depart="6.00">
        <route edges="-1088060314#0 -674854148#1 -674854148#0 -82694047#5 -82694047#4 -82694047#3 -82694047#2 -82694047#1 -22673864#7 -22673864#5 -22673864#4 -22673864#3 -22673864#2 -22673864#1 -22673864#0 624159307 -29373970#0 -82694984 -22673855#1 -22673855#0 -32338959#4"/>
    </vehicle>
    <vehicle id="7" depart="7.00">
        <route edges="29373833#0 29373833#1 1210561442 771306220 4483983#0 4483983#1 369676569#0 369676569#1 369676569#2 771123443#1 771123441#0 771123441#1 4483981#0 4483981#1 4483981#2 4483981#3 4483981#4 4483981#5 4483981#6 771108912 771098665#0 771098665#1 771098674#0 771098674#1 664749270 771088879 771088880 771088872 4263556 771088873 770553699#0 770553699#1 770553697#1 770553709#0 770553709#1 4263560 771098668 680270790#0 680270790#1 122127090#0 122127090#1 122127090#2 122127090#3 122127090#4 122127090#5 22000514#3 35068820#1 1177719373 1177719371 -145224326#4 -145224326#3 -145224326#2 -145224326#1 -145224326#0 -287007445 -82698562 82698566 -22598222 -29256360#7 -29256360#6 -29256360#5 -29256360#4 -29256360#3 -29256360#2 -29256360#0 -22598217#1 22598192#1"/>
    </vehicle>
    <vehicle id="8" depart="8.00">
        <route edges="-4263563#4 -4263563#3 -4263563#2 -4263563#1 -4263563#0 -103093186#0 676215732#2 696278200 696278199 790632147#0 103093184#1 103093184#2 103093184#3 695761930#0 695761930#3 695761941#3 695761941#4 695761941#5 695761941#6 695761941#7 695761941#8 695761947 695883278 1035393982#0 122127090#0 122127090#1 122127090#2 122127090#3 122127090#4 122127090#5 -60116130#2 -60116130#1 -60116130#0 560758487#1 695892074#1 695892074#2 695892066#1 254835231#1"/>
    </vehicle>
    <vehicle id="9" depart="9.00">
        <route edges="695563569#0 695563566#1 695563566#2 934338886 771376982#1 776060310 776060307#0 776047045 22650448 776062346 82694987 776066110 95602879 82694988 -952505335#1 -952505336 665723852#0 665723852#1 665723852#2 -95602877#3 -95602877#2 -95602877#0 -133342135#1 -133342135#0 -449474759 -449474757 -104217382#4 -104217382#3 -104217382#2 -104217382#1"/>
    </vehicle>
    <vehicle id="10" depart="10.00">
        <route edges="694947935#0 694947935#1 694947935#2 -694947935#2 -694947935#1 -694947935#0 123990818 -894524207 60012592#3 790632148#1 4263566#1"/>
    </vehicle>
    <vehicle id="11" depart="11.00">
        <route edges="-776479158#0 -791194931#1 -791194931#0 -936501265#2 -936501265#1 59917103#4 59917103#5 59917103#6 59917103#7 85691299#0 30302619#0 30302619#1 30302619#2 30302619#3 953212837#0 953212837#1 224385670 224385671#0 224385671#1 1120004254#0 1120004254#1 776479223 -266119610 -60013028#1 -60013028#0 -1076894336 -266119607 27788226#0 27788226#2 -27788455#2 -27788455#1 -27788455#0"/>
    </vehicle>
    <vehicle id="12" depart="12.00">
        <route edges="82710486#1 82710486#2 82710486#4 266119605#0 266119605#1 675153436#0 675153436#1 705423537#1 705423537#2 -675153437#1 -675153437#0 -107326713#6 -107326713#5 -107326713#4 -107326713#3 -675153434 -105827664#2 -105827664#1 -105827664#0 -105686872 105827666#0 105827666#1 105827666#2 104217382#0 104217382#1 104217382#2 104217382#3 104217382#4 449474757 449474759 133342135#0 133342135#1 95602877#0 95602877#2 95602877#3 183691269#0 183691269#1 615459151#0 615459151#1 777146050 777146053#0 777146053#1 -777146052"/>
    </vehicle>
    <vehicle id="13" depart="13.00">
        <route edges="-22000257#0 133346717#1 133346717#2 133346717#3 29221870 82698699#0 22000514#1 22000514#2 22000514#3 -22000514#3"/>
    </vehicle>
    <vehicle id="14" depart="14.00">
        <route edges="696543595 696543594 22650406#0 22650406#1 695777113#0 695777113#1 29373635#0 39726869#2 695777124#0 695777124#2 771352867 695881357#0 98686047#1 98686047#2 133340445#0 133340445#1 774961203#1 774961202 133340462#0 -22650439#1 -22650439#0 151820395#3 -774961197#1 -774961197#0 -22650441#4 -22650441#2 -22650441#1 -22650441#0 -182108111 29126188#3"/>
    </vehicle>
    <vehicle id="15" depart="15.00">
        <route edges="695531897 615478340#0 615478340#1 695531896 1222984004#0 1222984004#1 1222984004#2 105431463#0 105431463#1 105431463#2 105431463#3 105431463#4 105431463#5 1064271728#0 1064271728#1 60012034#0 60012034#1 60012030#0 560751932 103374664#1 60133626 697255110#1 560751935#2"/>
    </vehicle>
    <vehicle id="16" depart="16.00">
        <route edges="22001148#1 22001148#2 146321343#1 146321343#2 1177719373 1177719371 82699569#0 82699569#1 82699569#2 82699569#3 60009795#0 60009795#1 60009795#2 60009795#3 60009795#5 1112158700#1 1112158700#2 82695261#0 82695261#1 82695261#2 82695261#3 697662733#0 697662733#1 697662733#2 4263577#0 4263577#1 4263577#2 4263577#3 1181089635 1181089634 1181089628#0 1181089628#1 -82695263#7 -82695263#5 -82695263#4 -82695263#3 -82695263#2 -82695263#1 -82695263#0 -925017217#0 -27788370#1 27788370#1 925017217#0"/>
    </vehicle>
    <vehicle id="17" depart="17.00">
        <route edges="-924628755 254453300#0 254453300#1 -790917806 1193650945 1035393982#0 122127090#0 122127090#1 122127090#2 122127090#3 122127090#4 122127090#5 22000514#3 35068820#1 1177719373 1177719371 -145224326#4 -145224326#3 -145224326#2 -145224326#1 -145224326#0 -287007445 -82698562 22001073#0 22598215#0 22598215#1 -22598192#1 22598217#1"/>
    </vehicle>
    <vehicle id="18" depart="18.00">
        <route edges="695892074#1 695892074#2 695892073#0 695892073#2 695892080#1 695892080#2 695892080#3 98562690#1 22598220#0 22598220#1 22598220#2 -122127090#4 -122127090#3 -122127090#2 -122127090#1 -122127090#0 680270789 -680275200#3 -1069118940 -1069118938#1 -1069118938#0 -29255454#1 -29255471#3 29255471#3"/>
    </vehicle>
    <vehicle id="19" depart="19.00">
        <route edges="705423536#8 1181089636 1190319890 696080880 983757154 266119606#0 266119606#1 266119606#2 705423537#1 705423537#2 -675153437#1 -675153437#0 -107326713#6 -107326713#5 -107326713#4 -107326713#3 -675153434 -105827664#2 -105827664#1 -105827664#0 -105686872 105827666#0 105827666#1 105827666#2 104217382#0 104217382#1 104217382#2 104217382#3 104217382#4 449474757 449474759 -694903788#1 -694903788#0 -15833957#4 -15833940#3 -15833940#2 -15833940#0 -674854147#3 -22673861#3 -22673861#2 -22673861#1 -22673861#0 -935925623 -29373970#1 -624159307 22673864#0 22673864#1"/>
    </vehicle>
    <vehicle id="20" depart="20.00">
        <route edges="4263566#1 4263566#2 696278202 696278201 676215733#0 676215733#1 676215732#2 696278200 696278199 790632147#0 103093184#1 103093184#2 103093184#3 695761930#0 695761930#3 695761941#3 695761941#4 695761941#5 695761941#6 695761941#7 695761941#8 695761947 695883278 1035393982#0 680270789 22001435#0 22001435#1 395299122#0 395299122#1 771088865#0 399016689 771081537#0 771081537#1 664749270 771088879 771088880 771088872 -771088878 -696561456 -770547924#1 -770547924#0 -106242405 -1064224869 -133346720#1 -133346720#0"/>
    </vehicle>
    <vehicle id="21" depart="21.00">
        <route edges="-4483983#1 -4483983#0 -771306220 29169701 770524952#1 133340463#0 151820395#0 151820395#1 151820395#2 151820395#3 774977235#1 774977235#3 774977236#0 774977236#1 774977236#2 774977236#3 774977236#4 -133452689#8 -133452689#7 -133452689#6 -133452689#5 -133452689#3 -133452689#2 -133452689#1 -133452689#0 -771317202#3 -771317202#2 -771317202#1 -771317202#0 -695915142 -695915143#4 -695915143#0"/>
    </vehicle>
    <vehicle id="22" depart="22.00">
        <route edges="-203403545#2 -203403545#1 -203403545#0 -973399051 -30411277#1 810640830 973399052 56672072#0 56672072#1 56672072#2 56672072#4 56672072#5 1006936015 224149785#0 934263411#3 56672144#0 56672144#1 697662734#1 4847952#0 4847952#1 -4847952#1"/>
    </vehicle>
    <vehicle id="23" depart="23.00">
        <route edges="-22000664#4 22000664#4 -122127090#0 695761946#1 1035393981 695761942#0 695761942#1 695761942#2 695761931#0 695761931#1 695761931#2 790632148#1 4263566#1 4263566#2 696278202 696278201 676215733#0 676215733#1 1222984004#0 1222984004#1 1222984004#2 105431463#0 105431463#1 105431463#2 105431463#3 105431463#4 105431463#5 1064271728#0 1064271728#1 60012034#0 60012034#1 60012030#0 60012030#1 60012030#2 60012030#3 687897202#0 -687897202#0"/>
    </vehicle>
    <vehicle id="24" depart="24.00">
        <route edges="29255778#3 -82695261#1 -82695261#0 445233813#2 445233813#3 445233813#4 445233813#5 445233813#6 445233813#7 1177719370 -1177719371 -1177719373 -35068820#1 -22000514#3 -122127090#5 -122127090#4 -122127090#3 -122127090#2 -122127090#1 -122127090#0 680270789 -680275200#3 -1069118940 -695883275#2 -695883275#1 -842912153#2 -842912153#1 -842912153#0"/>
    </vehicle>
    <vehicle id="25" depart="25.00">
        <route edges="-82710486#4 -82710486#2 -82710486#1 -82710486#0 -4263575#1 -4263575#0 -71276775 1181089631 1181089632 696080880 983757154 266119606#0 266119606#1 266119606#2 43108132#2 43108132#3 43108132#4 675153435#0 675153435#1 675153435#2 -697662733#2 -697662733#1 -697662733#0 -82695261#3 -82695261#2 -82695261#1 -82695261#0 445233813#2 445233813#3 445233813#4 445233813#5 445233813#6 445233813#7 1177719370 -1177719371 -1177719373 -35068820#1 -22000514#3 -22000514#2 -22000514#1 -82698699#0 -180359791#5 -439851133#2 22598176#1 22598176#2 22598176#3 -369698668#1"/>
    </vehicle>
    <vehicle id="26" depart="26.00">
        <route edges="-612314867#1 -612314867#0 612314867#0 612314867#1 612314867#2 29373833#0 29373833#1 1210561442 29169701 770524952#1 133340463#0 -133340462#3 -133340462#2 -133340462#0 -774961202 -774961203#1 -133340445#1 -133340445#0 -21999532#4 -22673845#2 -22673845#1 -22673845#0 -1086908137 22650448 776062346 82694987 776066110 95602879 82694988 -952505335#1 -952505336 665723852#0 665723852#1 665723852#2 -95602877#3 -95602877#2 -95602877#0 -133342135#1 -133342135#0 -449474759 -449474757 -104217382#4 -104217382#3 -104217382#2 -104217382#1 -104217382#0 -105827666#2 -105827666#1 -105827666#0 105686872 105827664#0 105827664#1 105827664#2 675153434 107326713#3 107326713#4 107326713#5 107326713#6 675153437#0 675153437#1 705423536#0 705423536#1 705423536#5 705423536#6 705423536#7 705423536#8 1181089635 1181089634 1181089628#0 1181089628#1 -82695263#7 -82695263#5 -82695263#4 -82695263#3 -82695263#2 -82695263#1 -82695263#0 82695263#0 82695263#1 82695263#2 82695263#3"/>
    </vehicle>
    <vehicle id="27" depart="27.00">
        <route edges="29369237 95602877#2 1109166228#0 -29256863#1 -29256863#0 -695753232 82694986 680270788#0 680270788#1 680270788#2 777179988 772008789 98686047#1 98686047#2 133340445#0 133340445#1 774961203#1 774961202 133340462#0 133340462#2 133340462#3 -133340463#0 -770524952#1 -29169701 29169701"/>
    </vehicle>
    <vehicle id="28" depart="28.00">
        <route edges="-29221865 -1064224870 -1064224869 -133346720#1 22000188#0 22000188#1 22000188#2 22000188#4 133346717#0 133346717#1 133346717#2 133346717#3 29221870 82698699#0 22000514#1 22000514#2 22000514#3 35068820#1 1177719373 1177719371 82699569#0 82699569#1 82699569#2 82699569#3 60009795#0 60009795#1 60009795#2 60009795#3 60009795#5 1112158700#1 1112158700#2 262040035 29255603#9 29255603#10 29255603#11 29255603#12 29255603#13 29255603#15 29255603#16 560751935#0 560751935#1"/>
    </vehicle>
    <vehicle id="29" depart="29.00">
        <route edges="-29126188#2 -29126218#0 22650441#1 22650441#2 22650441#4 774961197#0 774961197#1 -151820395#3 22650439#0 22650439#1 -133340462#0 -774961202 -774961203#1 -133340445#1 -133340445#0 -21999532#4 -22673845#2 -22673845#1 -22673845#0 22650447 999311048 -999311048"/>
    </vehicle>
    <vehicle id="30" depart="30.00">
        <route edges="96910969#4 96910969#5 694947935#0 694947935#1 694947935#2 -361353290 -361353289#0 -183691269#5 -183691269#2 -183691269#1 -183691269#0 -95602877#3 1109166228#0 1109166228#1 15833960#0 -15833940#4 -15833940#3 -15833940#2 -15833940#0 -674854147#3 -674854147#2 -674854147#1 -674854147#0 15833885 82694989#0 82694989#1 82694989#2 82694989#3 82694042#0 82694042#1 82694042#2 82694042#3 82694042#4 29257171#1"/>
    </vehicle>
    <vehicle id="31" depart="31.00">
        <route edges="22598209 -10413927#2 -10413927#1 642184727#3 810640827 810640830 973399052 56672072#0 56672072#1 56672072#2 56672072#4 56672072#5 911400850#0 911400850#1 953212835#2 953212835#3 953212834 953212837#0 953212837#1 224385670 224385671#0 224385671#1 1120004254#0 1120004254#1 776479223 419372463#0 419372463#1"/>
    </vehicle>
    <vehicle id="32" depart="32.00">
        <route edges="696300676 696300675 610523503#0 -610523503#0 -696300675 -696300676 -82699613#1 -82699613#0 -105431463#5 -105431463#4 -105431463#3 -105431463#2 -105431463#1 -105431463#0 -4263573#6 -4263573#5 -4263573#2 -4263573#1 -105827664#2 -105827664#1 -105827664#0 -105686872 105827666#0 105827666#1 105827666#2 104217382#0 104217382#1 104217382#2 104217382#3 104217382#4 449474757 449474759 -694903788#1 -694903788#0 -15833957#4 -15833940#3 695547158 82694986 -95602879 -776066110 -82694987 -776062346 -22650448 -776047045 417435167#1 417435167#2 776059140 776059141 771367203#0 771367203#1 -624159306 -624159303 624159303 624159306"/>
    </vehicle>
    <vehicle id="33" depart="33.00">
        <route edges="-449474757 -104217382#4 -104217382#3 -104217382#2 -104217382#1 -104217382#0 104217382#0 104217382#1 104217382#2 104217382#3 104217382#4 449474757 449474759 133342135#0 133342135#1 95602877#0 95602877#2 95602877#3 183691269#0 183691269#1 183691269#2 183691269#5 183691269#6 183691269#7 183691269#8 183691269#9 183691269#10 96910969#0 29255471#0 29255471#1 29255471#2 29255471#3 29255454#1 1069118938#0 1069118938#1 1069118940 680275200#3 22001435#0 22001435#1 395299122#0 395299122#1 29373565 -695777113#1 -1190285018"/>
    </vehicle>
    <vehicle id="34" depart="34.00">
        <route edges="-697662734#1 697662734#1 4847952#0 4847952#1 4847952#2 4847952#5 82699567 60009795#0 60009795#1 60009795#2 60009795#3 60009795#5 60009797 445233813#3 445233813#4 445233813#5 445233813#6 445233813#7 1177719370 -1177719371 -1177719373 -35068820#1 -22000514#3 -122127090#5 -122127090#4 -122127090#3 -122127090#2 -122127090#1 -122127090#0 680270789 -680275200#3 -680275200#2 -680275200#1 -680275200#0 22000470 776324538#0 -776324539 -680275201 771352867 695881357#0 98686047#1 98686047#2 -21999532#4 -22673845#2 -22673845#1 -22673845#0 -1086908137 -776047044 -624159310"/>
    </vehicle>
    <vehicle id="35" depart="35.00">
        <route edges="-369698668#0 930946681#0 22000257#4 -82698702 -1190319886 -250263142#1 -250263142#0 695892066#1 22598181#0 22598181#1 315848437#0 22598183 -82698821#2 82698821#2"/>
    </vehicle>
    <vehicle id="36" depart="36.00">
        <route edges="771088872 4263556 771088873 770553699#0 770553699#1 770553697#1 770553709#0 770553709#1 770553708 770553710 395299120 771088868#0 771088868#1 4263559#0 771088864#0 771088864#1 695777124#0 695777124#2 771352867 695881357#0 98686047#1 98686047#2 133340445#0 133340445#1 774961203#1 774961202 133340462#0 133340462#2 133340462#3 -133340463#0 -770524952#1 -770524952#0 -770524953"/>
    </vehicle>
    <vehicle id="37" depart="37.00">
        <route edges="30302619#3 953212837#0 953212837#1 224385670 224385671#0 224385671#1 1120004254#0 1120004254#1 776479223 419372463#0 419372463#1 419372463#2 419372463#3 143174222#0 143174222#1 933567326 1076894339#0 1076894339#1 82695263#0 82695263#1 82695263#2 82695263#3 82695263#4 82695263#5 82695263#7 743639980 1181089633#0 1181089633#1 1181089630 1181089632 696080880 983757154 266119606#0 266119606#1 266119606#2 705423537#1 705423537#2 -675153437#1 -675153437#0 -107326713#6 -107326713#5 -107326713#4 -107326713#3 -675153434 -105827664#2 -105827664#1 -105827664#0 105827664#0"/>
    </vehicle>
    <vehicle id="38" depart="38.00">
        <route edges="776479227 776479229#0 146336920#1 776479223 419372463#0 419372463#1 419372463#2 419372463#3 143174222#0 143174222#1 933567326 1076894339#0 1076894339#1 82695263#0 82695263#1 82695263#2 82695263#3 82695263#4 82695263#5 82695263#7 743639980 1181089633#0 1181089633#1 1181089630 1181089632 696080880 983757154 266119606#0 266119606#1 266119606#2 705423537#1 705423537#2 -675153437#1 -675153437#0 -107326713#6 -107326713#5 -107326713#4 -107326713#3 -675153434 -105827664#2 -105827664#1 -105827664#0 -105686872 105827666#0 105827666#1 105827666#2 104217382#0 104217382#1 104217382#2 104217382#3 104217382#4 449474757 449474759 -694903788#1 -694903788#0 -15833957#4 -15833940#3 695547158 82694986 -95602879 -776066110 -82694987 -776062346 -22650448 -776047045 417435167#1 417435167#2 776059140 776059141 771367203#0 771367203#1 771367203#2 934078704 695915143#0 695915143#4 695915142 771317202#0 771317202#1 771317202#2 771317202#3 133452689#0 133452689#1 133452689#2 133452689#3 133452689#5 133452689#6"/>
    </vehicle>
    <vehicle id="39" depart="39.00">
        <route edges="-610523870 -610523503#1 -610523503#0 -696300675 -696300676 -82699613#1 -82699613#0 1064271728#0 1064271728#1 60012034#0 60012034#1 -60012034#1"/>
    </vehicle>
    <vehicle id="40" depart="40.00">
        <route edges="22598222 -82699559#1 -82699559#0 82699569#3 60009795#0 60009795#1 60009795#2 60009795#3 60009795#5 1112158700#1 1112158700#2 82695261#0 82695261#1 82695261#2 82695261#3 697662733#0 697662733#1 697662733#2 152020601#0 152020601#1 901609288 -610523902#1 -610523902#0"/>
    </vehicle>
    <vehicle id="41" depart="41.00">
        <route edges="22673864#2 22673864#3 22673864#4 22673864#5 22673864#7 82694047#1 82694047#2 82694047#3 82694047#4 82694047#5 674854148#0 674854148#1 1088060314#0 1088060314#1 934078703 771367204#0 771367204#1 776059142 776059139 98686051 776060308#0 776060309#1 776061216 771376983#0 934338885 695563569#0 417435166#1 771352869#0 695881358#1 774961198#0 774961198#1"/>
    </vehicle>
    <vehicle id="42" depart="42.00">
        <route edges="104217382#0 104217382#1 104217382#2 104217382#3 104217382#4 449474757 449474759 -449474759 -449474757 -104217382#4 -104217382#3 -104217382#2 -104217382#1 -104217382#0 -105827666#2 -105827666#1 -105827666#0 105686872 105827664#0 105827664#1 105827664#2 4263573#1 4263573#2 4263573#5 4263573#6 -4263573#6"/>
    </vehicle>
    <vehicle id="43" depart="43.00">
        <route edges="98686050#2 39726869#1 39726869#2 695777124#0 695777124#2 771352867 695881357#0 98686047#1 98686047#2 -21999532#4 -22673845#2 -22673845#1 -22673845#0 22650447 999311048 21999532#1"/>
    </vehicle>
    <vehicle id="44" depart="44.00">
        <route edges="-22000188#0 133346720#1 1064224869 106242405 770547924#0 770547924#1 696561456 771088878 4263556 771088873 770553699#0 770553699#1 770553697#1 770553709#0 770553709#1 770553708 770553710 395299120 771088868#0 771088868#1 4263559#0 771088864#0 771088864#1 695777124#0 695777124#2 771352867 695881357#0 98686047#1 98686047#2 133340445#0 133340445#1 774961203#1 774961202 133340462#0 -22650439#1 -22650439#0 151820395#3 774977235#1 774977235#3 774977236#0 774977236#1 774977236#2 774977236#3 774977236#4 -133452689#8 -133452689#7 -133452689#6 -133452689#5 -133452689#3 -133452689#2 -133452689#1"/>
    </vehicle>
    <vehicle id="45" depart="45.00">
        <route edges="-22598183 790926490#0 790926490#1 22598190#0 22598190#1 22598190#2 22598190#3 106738220#0 106738220#1 106738220#2 106738120#1 106738120#2 106738120#4 106738120#5 106738120#6 34368812 145224326#0 145224326#1 145224326#2 145224326#3 145224326#4 82699569#0 82699569#1 82699569#2 82699569#3 60009795#0 60009795#1 60009795#2 60009795#3 60009795#5 1112158700#1 1112158700#2 82695261#0 82695261#1 -29255778#3 -29255778#2 29255780#0 29255780#1 29255774"/>
    </vehicle>
    <vehicle id="46" depart="46.00">
        <route edges="675153435#2 -697662733#2 -697662733#1 -697662733#0 -82695261#3 -82695261#2 -82695261#1 -82695261#0 445233813#2 445233813#3 445233813#4 445233813#5 445233813#6 445233813#7 1177719370 -1177719371 -1177719373 -35068820#1 -22000514#3 -122127090#5 -122127090#4 -122127090#3 -122127090#2 -122127090#1 -122127090#0 680270789 22001435#0 22001435#1 395299122#0 395299122#1 771088865#0 399016689 771081537#0 771081537#1 4263555#0 4263555#1 771108913 771098666#0 771098666#1 771098666#2 771123442 771123444 695905155 421060893#0 421060893#1 421060893#2 112549084#0 112549084#1"/>
    </vehicle>
    <vehicle id="47" depart="47.00">
        <route edges="-15834188#0 15833957#3 -15833940#3 695547158 82694986 -95602879 -776066110 -82694987 -776062346 -22650448 -776047045 98686052 776061217 133340447 -771352866 -616470193 -771333125 -22650423#6 -22650423#5 1019747408"/>
    </vehicle>
    <vehicle id="48" depart="48.00">
        <route edges="98686047#1 98686047#2 417435166#1 771352869#0 695881358#1 680275201 776324539 22001581 776324537 680275200#0 680275200#1 680275200#2 680275200#3 22001435#0 22001435#1 22001352 771098669 680270790#0 680270790#1 122127090#0 122127090#1 122127090#2 122127090#3 122127090#4 122127090#5 -60116130#2 -60116130#1 -22001148#1 -22001148#0 22001148#0"/>
    </vehicle>
    <vehicle id="49" depart="49.00">
        <route edges="911079652#0 911079652#1 1120004254#0 1120004254#1 776479223 146336916 776479229#0 776479229#1 776479229#2 776479229#3 1120004252 56672144#0 56672144#1 56672144#2 880140124#0 880140124#2 880140124#3 880140124#4 880140120 880140119 880140123 942412873#0 942412873#1 942412873#2 56672059#0 56672059#1 22598208#1 26448876 -98562692 820063596 98562694 30989094 30989062 438657303 568843199 568843198 568843197 438657362 30794089#0 30794089#1 30794089#2 30794089#3 30794089#4 -203403538#6 -203403538#5 -203403538#4 -203403538#3 -203403538#1 10413952 82699176 22598209 749948774#0"/>
    </vehicle>
    <vehicle id="50" depart="50.00">
        <route edges="-105827664#1 -105827664#0 105827664#0 105827664#1 105827664#2 675153434 107326713#3 107326713#4 107326713#5 107326713#6 675153437#0 675153437#1 705423536#0 705423536#1 705423536#5 705423536#6 705423536#7 705423536#8 1181089635 1181089634 1181089628#0 1181089628#1 -82695263#7 -82695263#5 -82695263#4 -82695263#3 -82695263#2 -82695263#1 -82695263#0 -1076894339#1 -1076894339#0 -933567326 1089452242 1089452241 1089452243 29255734#0 29255734#1 29255734#2 29255734#3 696097621#0 696097621#1 696097621#2 697650791#0 697650791#1 -4847952#0 4847949#11 4847949#12"/>
    </vehicle>
    <vehicle id="52" depart="52.00">
        <route edges="-612314867#0 612314867#0 612314867#1 612314867#2 29373833#0 29373833#1 1210561442 29169701 770524952#1 133340463#0 -133340462#3 -133340462#2 -133340462#0 -774961202 -774961203#1 -133340445#1 -133340445#0 417435166#1 771352869#0 695881358#1 695777126 695777127#1 695777127#2 29373565"/>
    </vehicle>
    <vehicle id="53" depart="53.00">
        <route edges="-22598192#0 4847949#10 4847952#0 4847952#1 4847952#2 4847952#5 82699567 60009795#0 60009795#1 60009795#2 60009795#3 60009795#5 60009797 445233813#3 445233813#4 445233813#5 445233813#6 445233813#7 1177719370 -1177719371 -1177719373 -35068820#1 -22000514#3 -122127090#5 -122127090#4 -122127090#3 -122127090#2 -122127090#1 -122127090#0 680270789 22001435#0 22001435#1 395299122#0 395299122#1 771088865#0 399016689 771081537#0 771081537#1 4263555#0 4263555#1 771108913 771098666#0 771098666#1 771098666#2 771123442 771123444 421060892#0 4483986#1 4483986#2 -1172606359 1180602457"/>
    </vehicle>
    <vehicle id="54" depart="54.00">
        <route edges="1222984004#1 1222984004#2 -4263573#6 -4263573#5 -4263573#2 -4263573#1 675153434 107326713#3 107326713#4 107326713#5 107326713#6 675153437#0 675153437#1 705423536#0 705423536#1 705423536#5 705423536#6 705423536#7 705423536#8 1181089636 1190319890 913592665 4263575#0 4263575#1 82710486#0"/>
    </vehicle>
    <vehicle id="55" depart="55.00">
        <route edges="771088868#1 4263559#0 -395299122#1 -395299122#0 22001352 771098669 680270790#0 680270790#1 122127090#0 122127090#1 122127090#2 122127090#3 122127090#4 122127090#5 22000514#3 35068820#1 1177719373 1177719371 82699569#0 82699569#1 82699569#2 82699569#3 60009795#0 60009795#1 60009795#2 60009795#3 60009795#5 1112158700#1 1112158700#2 82695261#0 82695261#1 82695261#2 82695261#3 697662733#0 697662733#1 697662733#2 152020601#0 -610563740"/>
    </vehicle>
    <vehicle id="56" depart="56.00">
        <route edges="203403536#5 203403536#6 -203403545#3 -203403545#2 -203403545#1 -203403545#0 -973399051 -30411277#1 810640830 973399052 56672072#0 56672072#1 56672072#2 56672072#4 56672072#5 1006936015 224149785#0 934263411#3 56672144#0 791195493#2 4847964#0 4847964#1 697662732 685987845#0 685987845#1 -696097621#0 -36438924#1 -36438924#0 29255778#0 29255778#1 -29255778#1 -29255778#0"/>
    </vehicle>
    <vehicle id="57" depart="57.00">
        <route edges="776324539 22001581 776324537 680275200#0 680275200#1 680275200#2 680275200#3 22001435#0 22001435#1 395299122#0 395299122#1 771088865#0 399016689 771081537#0"/>
    </vehicle>
    <vehicle id="58" depart="58.00">
        <route edges="-696080887#1 -696080887#0 696080887#0 696080887#1 4263577#0 4263577#1 4263577#2 4263577#3 1181089636 1190319890 696080880 983757154 266119606#0 266119606#1 266119606#2 705423537#1 705423537#2 -675153437#1 -675153437#0 -107326713#6 -107326713#5 -107326713#4 -107326713#3 -675153434 -105827664#2 -105827664#1 -105827664#0 -105686872 105827666#0 105827666#1 105827666#2 104217382#0 104217382#1 104217382#2 104217382#3 104217382#4 449474757 449474759 -694903788#1 -1109166228#1 -29256863#1 29256863#1"/>
    </vehicle>
    <vehicle id="59" depart="59.00">
        <route edges="29126188#2 182108111 22650441#0 22650441#1 22650441#2 22650441#4 774961197#0 774961197#1 -151820395#3 22650439#0 22650439#1 -133340462#0 -774961202 -774961203#1 -133340445#1 -133340445#0 -21999532#4 -22673845#2 -22673845#1 -22673845#0 -1086908137 22650448 776062346 82694987 776066110 95602879 82694988 -952505335#1 -952505336 665723852#0 665723852#1 665723852#2 -95602877#3 -95602877#2 -95602877#0 -133342135#1 -133342135#0 -449474759 -449474757 -104217382#4 -104217382#3 -104217382#2 -104217382#1 -104217382#0 -105827666#2 -105827666#1 -105827666#0 105686872 105827664#0 105827664#1 105827664#2 675153434 107326713#3 107326713#4 107326713#5 107326713#6 675153437#0 675153437#1 705423536#0 705423536#1 705423536#5 705423536#6 705423536#7 705423536#8 1181089635 1181089634 1181089628#0 1181089628#1 -82695263#7 -82695263#5 -82695263#4 -82695263#3 -82695263#2 -82695263#1 -82695263#0 -925017217#0 -27788370#1 -27788370#0 -27788226#3"/>
    </vehicle>
    <vehicle id="60" depart="60.00">
        <route edges="601166077#1 931649731 203403543#0 203403543#1 203403543#2 203403543#3 203403543#4 203403543#5 203403543#6 1205410815 203403536#0 203403536#1 203403536#3 203403536#4 203403536#5 203403536#6 820063521#0 820063521#1 820063521#2 10413952 82699176 22598209 749948774#0 749948774#1 749948774#2 749948774#3 749948774#4 749948774#6 749948774#7 749948774#8 696313995 453255616 30989063 30989096 820063597 39726542 695892057#1 680859362#0 695892065#1 695892073#0 695892073#2 695892080#1 695892080#2 695892080#3 -82698699#0 -180359791#5 -439851133#2 22598176#1 22598176#2"/>
    </vehicle>
    <vehicle id="61" depart="61.00">