<?xml version="1.0" ?>
<routes>
  <person id="person_219" depart="1" departLane="random" departSpeed="1.00" color="1,0,0">
    <walk from="-4588647" busStop="-4588647" speed="1.5"/>
    <stop busStop="-4588647" duration="382"/>
    <walk from="-4588647" to="1112806233" speed="1.5"/>
  </person>
  <person id="person_139" depart="55" departLane="random" departSpeed="1.00" color="0,1,0">
    <walk from="1174874706" busStop="1174874706" speed="1.5"/>
    <ride line="trad_line" busStop="1174874706" to="1112806233"/>
    <walk edges="1112806233" speed="1.5"/>
  </person>
  <person id="person_64" depart="62" departLane="random" departSpeed="1.00" color="1,0,0">
    <walk from="1174874706" busStop="1174874706" speed="1.5"/>
    <stop busStop="1174874706" duration="336"/>
    <walk from="1174874706" to="-4588647" speed="1.5"/>
  </person>
  <person id="person_268" depart="92" departLane="random" departSpeed="1.00" color="0,1,0">
    <walk from="1112806233" busStop="1112806233" speed="1.5"/>
    <ride line="trad_line" busStop="1112806233" to="4588647"/>
    <walk edges="4588647" speed="1.5"/>
  </person>
  <person id="person_256" depart="149" departLane="random" departSpeed="1.00" color="0,1,0">
    <walk from="-917450542" busStop="-917450542" speed="1.5"/>
    <ride line="trad_line" busStop="-917450542" to="1112806233"/>
    <walk edges="1112806233" speed="1.5"/>
  </person>
  <person id="person_119" depart="168" departLane="random" departSpeed="1.00" color="0,1,0">
    <walk from="-917450542" busStop="-917450542" speed="1.5"/>
    <ride line="trad_line" busStop="-917450542" to="1112806233"/>
    <walk edges="1112806233" speed="1.5"/>
  </person>
  <person id="person_81" depart="217" departLane="random" departSpeed="1.00" color="1,0,1">
    <walk from="1112806233" busStop="1112806233" speed="1.5"/>
    <stop busStop="1112806233" duration="209"/>
  </person>
  <person id="person_47" depart="239" departLane="random" departSpeed="1.00" color="1,0,0">
    <walk from="1174874706" busStop="1174874706" speed="1.5"/>
    <stop busStop="1174874706" duration="480"/>
    <walk from="1174874706" to="4588647" speed="1.5"/>
  </person>
  <person id="person_43" depart="241" departLane="random" departSpeed="1.00" color="1,0,0">
    <walk from="1112806233" busStop="1112806233" speed="1.5"/>
    <stop busStop="1112806233" duration="344"/>
    <walk from="1112806233" to="4588647" speed="1.5"/>
  </person>
  <person id="person_225" depart="280" departLane="random" departSpeed="1.00" color="1,0,1">
    <walk from="1112806233" busStop="1112806233" speed="1.5"/>
    <stop busStop="1112806233" duration="47"/>
  </person>
  <person id="person_235" depart="280" departLane="random" departSpeed="1.00" color="1,0,1">
    <walk from="-4588647" busStop="-4588647" speed="1.5"/>
    <stop busStop="-4588647" duration="576"/>
  </person>
  <person id="person_96" depart="281" departLane="random" departSpeed="1.00" color="1,0,0">
    <walk from="1112806233" busStop="1112806233" speed="1.5"/>
    <stop busStop="1112806233" duration="193"/>
    <walk from="1112806233" to="4588647" speed="1.5"/>
  </person>
  <person id="person_210" depart="283" departLane="random" departSpeed="1.00" color="1,0,1">
    <walk from="-917450542" busStop="-917450542" speed="1.5"/>
    <stop busStop="-917450542" duration="533"/>
  </person>
  <person id="person_155" depart="284" departLane="random" departSpeed="1.00" color="1,0,0">
    <walk from="1174874706" busStop="1174874706" speed="1.5"/>
    <stop busStop="1174874706" duration="454"/>
    <walk from="1174874706" to="-917450542" speed="1.5"/>
  </person>
  <person id="person_69" depart="285" departLane="random" departSpeed="1.00" color="0,1,0">
    <walk from="1112806233" busStop="1112806233" speed="1.5"/>
    <ride line="trad_line" busStop="1112806233" to="4588647"/>
    <walk edges="4588647" speed="1.5"/>
  </person>
  <person id="person_37" depart="291" departLane="random" departSpeed="1.00" color="1,0,1">
    <walk from="-4588647" busStop="-4588647" speed="1.5"/>
    <stop busStop="-4588647" duration="118"/>
  </person>
  <person id="person_296" depart="299" departLane="random" departSpeed="1.00" color="1,0,1">
    <walk from="1174874706" busStop="1174874706" speed="1.5"/>
    <stop busStop="1174874706" duration="132"/>
  </person>
  <person id="person_254" depart="304" departLane="random" departSpeed="1.00" color="0,1,0">
    <walk from="-917450542" busStop="-917450542" speed="1.5"/>
    <ride line="trad_line" busStop="-917450542" to="1112806233"/>
    <walk edges="1112806233" speed="1.5"/>
  </person>
  <person id="person_6" depart="310" departLane="random" departSpeed="1.00" color="0,1,0">
    <walk from="-4588647" busStop="-4588647" speed="1.5"/>
    <ride line="trad_line" busStop="-4588647" to="1112806233"/>
    <walk edges="1112806233" speed="1.5"/>
  </person>
  <person id="person_124" depart="326" departLane="random" departSpeed="1.00" color="1,0,1">
    <walk from="1112806233" busStop="1112806233" speed="1.5"/>
    <stop busStop="1112806233" duration="120"/>
  </person>
  <person id="person_136" depart="346" departLane="random" departSpeed="1.00" color="0,1,0">
    <walk from="1174874706" busStop="1174874706" speed="1.5"/>
    <ride line="trad_line" busStop="1174874706" to="-4588647"/>
    <walk edges="-4588647" speed="1.5"/>
  </person>
  <person id="person_266" depart="366" departLane="random" departSpeed="1.00" color="1,0,0">
    <walk from="1112806233" busStop="1112806233" speed="1.5"/>
    <stop busStop="1112806233" duration="266"/>
    <walk from="1112806233" to="4588647" speed="1.5"/>
  </person>
  <person id="person_56" depart="382" departLane="random" departSpeed="1.00" color="1,0,1">
    <walk from="-4588647" busStop="-4588647" speed="1.5"/>
    <stop busStop="-4588647" duration="575"/>
  </person>
  <person id="person_58" depart="394" departLane="random" departSpeed="1.00" color="0,1,0">
    <walk from="1112806233" busStop="1112806233" speed="1.5"/>
    <ride line="trad_line" busStop="1112806233" to="4588647"/>
    <walk edges="4588647" speed="1.5"/>
  </person>
  <person id="person_264" depart="442" departLane="random" departSpeed="1.00" color="1,0,0">
    <walk from="1174874706" busStop="1174874706" speed="1.5"/>
    <stop busStop="1174874706" duration="59"/>
    <walk from="1174874706" to="1112806233" speed="1.5"/>
  </person>
  <person id="person_41" depart="475" departLane="random" departSpeed="1.00" color="0,1,0">
    <walk from="1112806233" busStop="1112806233" speed="1.5"/>
    <ride line="trad_line" busStop="1112806233" to="4588647"/>
    <walk edges="4588647" speed="1.5"/>
  </person>
  <person id="person_202" depart="479" departLane="random" departSpeed="1.00" color="1,0,0">
    <walk from="-4588647" busStop="-4588647" speed="1.5"/>
    <stop busStop="-4588647" duration="265"/>
    <walk from="-4588647" to="4588647" speed="1.5"/>
  </person>
  <person id="person_162" depart="512" departLane="random" departSpeed="1.00" color="1,0,1">
    <walk from="-917450542" busStop="-917450542" speed="1.5"/>
    <stop busStop="-917450542" duration="244"/>
  </person>
  <person id="person_183" depart="523" departLane="random" departSpeed="1.00" color="0,1,0">
    <walk from="1112806233" busStop="1112806233" speed="1.5"/>
    <ride line="trad_line" busStop="1112806233" to="4588647"/>
    <walk edges="4588647" speed="1.5"/>
  </person>
  <person id="person_177" depart="538" departLane="random" departSpeed="1.00" color="0,1,0">
    <walk from="1112806233" busStop="1112806233" speed="1.5"/>
    <ride line="trad_line" busStop="1112806233" to="4588647"/>
    <walk edges="4588647" speed="1.5"/>
  </person>
  <person id="person_135" depart="552" departLane="random" departSpeed="1.00" color="1,0,1">
    <walk from="1112806233" busStop="1112806233" speed="1.5"/>
    <stop busStop="1112806233" duration="107"/>
  </person>
  <person id="person_91" depart="558" departLane="random" departSpeed="1.00" color="1,0,0">
    <walk from="-4588647" busStop="-4588647" speed="1.5"/>
    <stop busStop="-4588647" duration="425"/>
    <walk from="-4588647" to="1112806233" speed="1.5"/>
  </person>
  <person id="person_288" depart="562" departLane="random" departSpeed="1.00" color="1,0,0">
    <walk from="1174874706" busStop="1174874706" speed="1.5"/>
    <stop busStop="1174874706" duration="210"/>
    <walk from="1174874706" to="4588647" speed="1.5"/>
  </person>
  <person id="person_82" depart="580" departLane="random" departSpeed="1.00" color="1,0,1">
    <walk from="-917450542" busStop="-917450542" speed="1.5"/>
    <stop busStop="-917450542" duration="446"/>
  </person>
  <person id="person_28" depart="590" departLane="random" departSpeed="1.00" color="0,1,0">
    <walk from="1112806233" busStop="1112806233" speed="1.5"/>
    <ride line="trad_line" busStop="1112806233" to="4588647"/>
    <walk edges="4588647" speed="1.5"/>
  </person>
  <person id="person_215" depart="646" departLane="random" departSpeed="1.00" color="1,0,1">
    <walk from="-917450542" busStop="-917450542" speed="1.5"/>
    <stop busStop="-917450542" duration="265"/>
  </person>
  <person id="person_229" depart="673" departLane="random" departSpeed="1.00" color="0,1,0">
    <walk from="-4588647" busStop="-4588647" speed="1.5"/>
    <ride line="trad_line" busStop="-4588647" to="1112806233"/>
    <walk edges="1112806233" speed="1.5"/>
  </person>
  <person id="person_39" depart="680" departLane="random" departSpeed="1.00" color="1,0,1">
    <walk from="-917450542" busStop="-917450542" speed="1.5"/>
    <stop busStop="-917450542" duration="284"/>
  </person>
  <person id="person_227" depart="723" departLane="random" departSpeed="1.00" color="1,0,1">
    <walk from="1112806233" busStop="1112806233" speed="1.5"/>
    <stop busStop="1112806233" duration="541"/>
  </person>
  <person id="person_243" depart="816" departLane="random" departSpeed="1.00" color="0,1,0">
    <walk from="-4588647" busStop="-4588647" speed="1.5"/>
    <ride line="trad_line" busStop="-4588647" to="4588647"/>
    <walk edges="4588647" speed="1.5"/>
  </person>
  <person id="person_73" depart="817" departLane="random" departSpeed="1.00" color="0,1,0">
    <walk from="-917450542" busStop="-917450542" speed="1.5"/>
    <ride line="trad_line" busStop="-917450542" to="-4588647"/>
    <walk edges="-4588647" speed="1.5"/>
  </person>
  <person id="person_108" depart="844" departLane="random" departSpeed="1.00" color="1,0,1">
    <walk from="1112806233" busStop="1112806233" speed="1.5"/>
    <stop busStop="1112806233" duration="352"/>
  </person>
  <person id="person_192" depart="871" departLane="random" departSpeed="1.00" color="0,1,0">
    <walk from="-917450542" busStop="-917450542" speed="1.5"/>
    <ride line="trad_line" busStop="-917450542" to="-4588647"/>
    <walk edges="-4588647" speed="1.5"/>
  </person>
  <person id="person_132" depart="873" departLane="random" departSpeed="1.00" color="1,0,1">
    <walk from="-917450542" busStop="-917450542" speed="1.5"/>
    <stop busStop="-917450542" duration="202"/>
  </person>
  <person id="person_101" depart="902" departLane="random" departSpeed="1.00" color="0,1,0">
    <walk from="1112806233" busStop="1112806233" speed="1.5"/>
    <ride line="trad_line" busStop="1112806233" to="4588647"/>
    <walk edges="4588647" speed="1.5"/>
  </person>
  <person id="person_160" depart="950" departLane="random" departSpeed="1.00" color="0,1,0">
    <walk from="1112806233" busStop="1112806233" speed="1.5"/>
    <ride line="trad_line" busStop="1112806233" to="4588647"/>
    <walk edges="4588647" speed="1.5"/>
  </person>
  <person id="person_154" depart="972" departLane="random" departSpeed="1.00" color="1,0,0">
    <walk from="1112806233" busStop="1112806233" speed="1.5"/>
    <stop busStop="1112806233" duration="264"/>
    <walk from="1112806233" to="4588647" speed="1.5"/>
  </person>
  <person id="person_283" depart="1023" departLane="random" departSpeed="1.00" color="1,0,1">
    <walk from="-4588647" busStop="-4588647" speed="1.5"/>
    <stop busStop="-4588647" duration="221"/>
  </person>
  <person id="person_21" depart="1033" departLane="random" departSpeed="1.00" color="1,0,0">
    <walk from="-917450542" busStop="-917450542" speed="1.5"/>
    <stop busStop="-917450542" duration="220"/>
    <walk from="-917450542" to="4588647" speed="1.5"/>
  </person>
  <person id="person_211" depart="1059" departLane="random" departSpeed="1.00" color="1,0,0">
    <walk from="-917450542" busStop="-917450542" speed="1.5"/>
    <stop busStop="-917450542" duration="112"/>
    <walk from="-917450542" to="1112806233" speed="1.5"/>
  </person>
  <person id="person_125" depart="1123" departLane="random" departSpeed="1.00" color="0,1,0">
    <walk from="1174874706" busStop="1174874706" speed="1.5"/>
    <ride line="trad_line" busStop="1174874706" to="1112806233"/>
    <walk edges="1112806233" speed="1.5"/>
  </person>
  <person id="person_79" depart="1130" departLane="random" departSpeed="1.00" color="1,0,1">
    <walk from="-4588647" busStop="-4588647" speed="1.5"/>
    <stop busStop="-4588647" duration="99"/>
  </person>
  <person id="person_52" depart="1154" departLane="random" departSpeed="1.00" color="1,0,0">
    <walk from="-4588647" busStop="-4588647" speed="1.5"/>
    <stop busStop="-4588647" duration="209"/>
    <walk from="-4588647" to="1112806233" speed="1.5"/>
  </person>
  <person id="person_218" depart="1158" departLane="random" departSpeed="1.00" color="1,0,1">
    <walk from="-917450542" busStop="-917450542" speed="1.5"/>
    <stop busStop="-917450542" duration="360"/>
  </person>
  <person id="person_195" depart="1165" departLane="random" departSpeed="1.00" color="0,1,0">
    <walk from="1174874706" busStop="1174874706" speed="1.5"/>
    <ride line="trad_line" busStop="1174874706" to="4588647"/>
    <walk edges="4588647" speed="1.5"/>
  </person>
  <person id="person_151" depart="1175" departLane="random" departSpeed="1.00" color="1,0,0">
    <walk from="1112806233" busStop="1112806233" speed="1.5"/>
    <stop busStop="1112806233" duration="179"/>
    <walk from="1112806233" to="4588647" speed="1.5"/>
  </person>
  <person id="person_62" depart="1239" departLane="random" departSpeed="1.00" color="1,0,0">
    <walk from="-917450542" busStop="-917450542" speed="1.5"/>
    <stop busStop="-917450542" duration="475"/>
    <walk from="-917450542" to="-4588647" speed="1.5"/>
  </person>
  <person id="person_83" depart="1294" departLane="random" departSpeed="1.00" color="0,1,0">
    <walk from="-4588647" busStop="-4588647" speed="1.5"/>
    <ride line="trad_line" busStop="-4588647" to="4588647"/>
    <walk edges="4588647" speed="1.5"/>
  </person>
  <person id="person_145" depart="1301" departLane="random" departSpeed="1.00" color="0,1,0">
    <walk from="1174874706" busStop="1174874706" speed="1.5"/>
    <ride line="trad_line" busStop="1174874706" to="-4588647"/>
    <walk edges="-4588647" speed="1.5"/>
  </person>
  <person id="person_196" depart="1322" departLane="random" departSpeed="1.00" color="1,0,0">
    <walk from="-4588647" busStop="-4588647" speed="1.5"/>
    <stop busStop="-4588647" duration="109"/>
    <walk from="-4588647" to="4588647" speed="1.5"/>
  </person>
  <person id="person_118" depart="1329" departLane="random" departSpeed="1.00" color="1,0,0">
    <walk from="-917450542" busStop="-917450542" speed="1.5"/>
    <stop busStop="-917450542" duration="286"/>
    <walk from="-917450542" to="4588647" speed="1.5"/>
  </person>
  <person id="person_233" depart="1336" departLane="random" departSpeed="1.00" color="0,1,0">
    <walk from="-4588647" busStop="-4588647" speed="1.5"/>
    <ride line="trad_line" busStop="-4588647" to="4588647"/>
    <walk edges="4588647" speed="1.5"/>
  </person>
  <person id="person_94" depart="1354" departLane="random" departSpeed="1.00" color="0,1,0">
    <walk from="1174874706" busStop="1174874706" speed="1.5"/>
    <ride line="trad_line" busStop="1174874706" to="-917450542"/>
    <walk edges="-917450542" speed="1.5"/>
  </person>
  <person id="person_179" depart="1357" departLane="random" departSpeed="1.00" color="0,1,0">
    <walk from="-4588647" busStop="-4588647" speed="1.5"/>
    <ride line="trad_line" busStop="-4588647" to="1112806233"/>
    <walk edges="1112806233" speed="1.5"/>
  </person>
  <person id="person_86" depart="1389" departLane="random" departSpeed="1.00" color="1,0,1">
    <walk from="-4588647" busStop="-4588647" speed="1.5"/>
    <stop busStop="-4588647" duration="536"/>
  </person>
  <person id="person_17" depart="1407" departLane="random" departSpeed="1.00" color="1,0,1">
    <walk from="1112806233" busStop="1112806233" speed="1.5"/>
    <stop busStop="1112806233" duration="306"/>
  </person>
  <person id="person_185" depart="1434" departLane="random" departSpeed="1.00" color="1,0,0">
    <walk from="-917450542" busStop="-917450542" speed="1.5"/>
    <stop busStop="-917450542" duration="494"/>
    <walk from="-917450542" to="1112806233" speed="1.5"/>
  </person>
  <person id="person_156" depart="1453" departLane="random" departSpeed="1.00" color="0,1,0">
    <walk from="1174874706" busStop="1174874706" speed="1.5"/>
    <ride line="trad_line" busStop="1174874706" to="1112806233"/>
    <walk edges="1112806233" speed="1.5"/>
  </person>
  <person id="person_200" depart="1488" departLane="random" departSpeed="1.00" color="1,0,1">
    <walk from="-917450542" busStop="-917450542" speed="1.5"/>
    <stop busStop="-917450542" duration="483"/>
  </person>
  <person id="person_18" depart="1542" departLane="random" departSpeed="1.00" color="1,0,0">
    <walk from="1112806233" busStop="1112806233" speed="1.5"/>
    <stop busStop="1112806233" duration="170"/>
    <walk from="1112806233" to="4588647" speed="1.5"/>
  </person>
  <person id="person_68" depart="1558" departLane="random" departSpeed="1.00" color="1,0,0">
    <walk from="1112806233" busStop="1112806233" speed="1.5"/>
    <stop busStop="1112806233" duration="387"/>
    <walk from="1112806233" to="4588647" speed="1.5"/>
  </person>
  <person id="person_269" depart="1571" departLane="random" departSpeed="1.00" color="1,0,0">
    <walk from="-4588647" busStop="-4588647" speed="1.5"/>
    <stop busStop="-4588647" duration="322"/>
    <walk from="-4588647" to="4588647" speed="1.5"/>
  </person>
  <person id="person_157" depart="1592" departLane="random" departSpeed="1.00" color="1,0,0">
    <walk from="-917450542" busStop="-917450542" speed="1.5"/>
    <stop busStop="-917450542" duration="544"/>
    <walk from="-917450542" to="-4588647" speed="1.5"/>
  </person>
  <person id="person_127" depart="1594" departLane="random" departSpeed="1.00" color="0,1,0">
    <walk from="1174874706" busStop="1174874706" speed="1.5"/>
    <ride line="trad_line" busStop="1174874706" to="-4588647"/>
    <walk edges="-4588647" speed="1.5"/>
  </person>
  <person id="person_74" depart="1597" departLane="random" departSpeed="1.00" color="1,0,0">
    <walk from="-917450542" busStop="-917450542" speed="1.5"/>
    <stop busStop="-917450542" duration="564"/>
    <walk from="-917450542" to="4588647" speed="1.5"/>
  </person>
  <person id="person_57" depart="1612" departLane="random" departSpeed="1.00" color="1,0,0">
    <walk from="-917450542" busStop="-917450542" speed="1.5"/>
    <stop busStop="-917450542" duration="31"/>
    <walk from="-917450542" to="-4588647" speed="1.5"/>
  </person>
  <person id="person_201" depart="1614" departLane="random" departSpeed="1.00" color="1,0,0">
    <walk from="-917450542" busStop="-917450542" speed="1.5"/>
    <stop busStop="-917450542" duration="576"/>
    <walk from="-917450542" to="1112806233" speed="1.5"/>
  </person>
  <person id="person_95" depart="1638" departLane="random" departSpeed="1.00" color="1,0,1">
    <walk from="1174874706" busStop="1174874706" speed="1.5"/>
    <stop busStop="1174874706" duration="390"/>
  </person>
  <person id="person_11" depart="1642" departLane="random" departSpeed="1.00" color="1,0,0">
    <walk from="1112806233" busStop="1112806233" speed="1.5"/>
    <stop busStop="1112806233" duration="260"/>
    <walk from="1112806233" to="4588647" speed="1.5"/>
  </person>
  <person id="person_126" depart="1647" departLane="random" departSpeed="1.00" color="0,1,0">
    <walk from="-4588647" busStop="-4588647" speed="1.5"/>
    <ride line="trad_line" busStop="-4588647" to="4588647"/>
    <walk edges="4588647" speed="1.5"/>
  </person>
  <person id="person_134" depart="1656" departLane="random" departSpeed="1.00" color="1,0,0">
    <walk from="1174874706" busStop="1174874706" speed="1.5"/>
    <stop busStop="1174874706" duration="390"/>
    <walk from="1174874706" to="1112806233" speed="1.5"/>
  </person>
  <person id="person_259" depart="1658" departLane="random" departSpeed="1.00" color="0,1,0">
    <walk from="-4588647" busStop="-4588647" speed="1.5"/>
    <ride line="trad_line" busStop="-4588647" to="1112806233"/>
    <walk edges="1112806233" speed="1.5"/>
  </person>
  <person id="person_27" depart="1672" departLane="random" departSpeed="1.00" color="0,1,0">
    <walk from="-4588647" busStop="-4588647" speed="1.5"/>
    <ride line="trad_line" busStop="-4588647" to="4588647"/>
    <walk edges="4588647" speed="1.5"/>
  </person>
  <person id="person_251" depart="1691" departLane="random" departSpeed="1.00" color="1,0,1">
    <walk from="-917450542" busStop="-917450542" speed="1.5"/>
    <stop busStop="-917450542" duration="47"/>
  </person>
  <person id="person_166" depart="1693" departLane="random" departSpeed="1.00" color="1,0,1">
    <walk from="1112806233" busStop="1112806233" speed="1.5"/>
    <stop busStop="1112806233" duration="576"/>
  </person>
  <person id="person_277" depart="1725" departLane="random" departSpeed="1.00" color="1,0,0">
    <walk from="-917450542" busStop="-917450542" speed="1.5"/>
    <stop busStop="-917450542" duration="60"/>
    <walk from="-917450542" to="4588647" speed="1.5"/>
  </person>
  <person id="person_226" depart="1738" departLane="random" departSpeed="1.00" color="0,1,0">
    <walk from="-917450542" busStop="-917450542" speed="1.5"/>
    <ride line="trad_line" busStop="-917450542" to="-4588647"/>
    <walk edges="-4588647" speed="1.5"/>
  </person>
  <person id="person_129" depart="1749" departLane="random" departSpeed="1.00" color="1,0,1">
    <walk from="-4588647" busStop="-4588647" speed="1.5"/>
    <stop busStop="-4588647" duration="228"/>
  </person>
  <person id="person_109" depart="1763" departLane="random" departSpeed="1.00" color="0,1,0">
    <walk from="1112806233" busStop="1112806233" speed="1.5"/>
    <ride line="trad_line" busStop="1112806233" to="4588647"/>
    <walk edges="4588647" speed="1.5"/>
  </person>
  <person id="person_300" depart="1784" departLane="random" departSpeed="1.00" color="1,0,1">
    <walk from="-4588647" busStop="-4588647" speed="1.5"/>
    <stop busStop="-4588647" duration="375"/>
  </person>
  <person id="person_220" depart="1789" departLane="random" departSpeed="1.00" color="0,1,0">
    <walk from="-4588647" busStop="-4588647" speed="1.5"/>
    <ride line="trad_line" busStop="-4588647" to="1112806233"/>
    <walk edges="1112806233" speed="1.5"/>
  </person>
  <person id="person_237" depart="1838" departLane="random" departSpeed="1.00" color="0,1,0">
    <walk from="1112806233" busStop="1112806233" speed="1.5"/>
    <ride line="trad_line" busStop="1112806233" to="4588647"/>
    <walk edges="4588647" speed="1.5"/>
  </person>
  <person id="person_159" depart="1842" departLane="random" departSpeed="1.00" color="1,0,1">
    <walk from="1174874706" busStop="1174874706" speed="1.5"/>
    <stop busStop="1174874706" duration="291"/>
  </person>
  <person id="person_216" depart="1854" departLane="random" departSpeed="1.00" color="1,0,0">
    <walk from="-4588647" busStop="-4588647" speed="1.5"/>
    <stop busStop="-4588647" duration="528"/>
    <walk from="-4588647" to="4588647" speed="1.5"/>
  </person>
  <person id="person_285" depart="1894" departLane="random" departSpeed="1.00" color="0,1,0">
    <walk from="-917450542" busStop="-917450542" speed="1.5"/>
    <ride line="trad_line" busStop="-917450542" to="-4588647"/>
    <walk edges="-4588647" speed="1.5"/>
  </person>
  <person id="person_115" depart="1913" departLane="random" departSpeed="1.00" color="0,1,0">
    <walk from="-917450542" busStop="-917450542" speed="1.5"/>
    <ride line="trad_line" busStop="-917450542" to="4588647"/>
    <walk edges="4588647" speed="1.5"/>
  </person>
  <person id="person_274" depart="1939" departLane="random" departSpeed="1.00" color="1,0,0">
    <walk from="1112806233" busStop="1112806233" speed="1.5"/>
    <stop busStop="1112806233" duration="382"/>
    <walk from="1112806233" to="4588647" speed="1.5"/>
  </person>
  <person id="person_205" depart="1940" departLane="random" departSpeed="1.00" color="1,0,1">
    <walk from="1112806233" busStop="1112806233" speed="1.5"/>
    <stop busStop="1112806233" duration="305"/>
  </person>
  <person id="person_24" depart="1966" departLane="random" departSpeed="1.00" color="1,0,0">
    <walk from="-917450542" busStop="-917450542" speed="1.5"/>
    <stop busStop="-917450542" duration="525"/>
    <walk from="-917450542" to="4588647" speed="1.5"/>
  </person>
  <person id="person_78" depart="1977" departLane="random" departSpeed="1.00" color="1,0,0">
    <walk from="1174874706" busStop="1174874706" speed="1.5"/>
    <stop busStop="1174874706" duration="288"/>
    <walk from="1174874706" to="-917450542" speed="1.5"/>
  </person>
  <person id="person_114" depart="2003" departLane="random" departSpeed="1.00" color="1,0,0">
    <walk from="-917450542" busStop="-917450542" speed="1.5"/>
    <stop busStop="-917450542" duration="163"/>
    <walk from="-917450542" to="4588647" speed="1.5"/>
  </person>
  <person id="person_244" depart="2018" departLane="random" departSpeed="1.00" color="0,1,0">
    <walk from="-4588647" busStop="-4588647" speed="1.5"/>
    <ride line="trad_line" busStop="-4588647" to="4588647"/>
    <walk edges="4588647" speed="1.5"/>
  </person>
  <person id="person_76" depart="2038" departLane="random" departSpeed="1.00" color="0,1,0">
    <walk from="-4588647" busStop="-4588647" speed="1.5"/>
    <ride line="trad_line" busStop="-4588647" to="4588647"/>
    <walk edges="4588647" speed="1.5"/>
  </person>
  <person id="person_143" depart="2049" departLane="random" departSpeed="1.00" color="0,1,0">
    <walk from="-4588647" busStop="-4588647" speed="1.5"/>
    <ride line="trad_line" busStop="-4588647" to="4588647"/>
    <walk edges="4588647" speed="1.5"/>
  </person>
  <person id="person_181" depart="2072" departLane="random" departSpeed="1.00" color="1,0,0">
    <walk from="-917450542" busStop="-917450542" speed="1.5"/>
    <stop busStop="-917450542" duration="189"/>
    <walk from="-917450542" to="4588647" speed="1.5"/>
  </person>
  <person id="person_103" depart="2094" departLane="random" departSpeed="1.00" color="1,0,0">
    <walk from="-917450542" busStop="-917450542" speed="1.5"/>
    <stop busStop="-917450542" duration="173"/>
    <walk from="-917450542" to="1112806233" speed="1.5"/>
  </person>
  <person id="person_188" depart="2128" departLane="random" departSpeed="1.00" color="1,0,1">
    <walk from="1174874706" busStop="1174874706" speed="1.5"/>
    <stop busStop="1174874706" duration="464"/>
  </person>
  <person id="person_148" depart="2154" departLane="random" departSpeed="1.00" color="0,1,0">
    <walk from="1112806233" busStop="1112806233" speed="1.5"/>
    <ride line="trad_line" busStop="1112806233" to="4588647"/>
    <walk edges="4588647" speed="1.5"/>
  </person>
  <person id="person_213" depart="2183" departLane="random" departSpeed="1.00" color="1,0,1">
    <walk from="1174874706" busStop="1174874706" speed="1.5"/>
    <stop busStop="1174874706" duration="86"/>
  </person>
  <person id="person_203" depart="2264" departLane="random" departSpeed="1.00" color="1,0,1">
    <walk from="-917450542" busStop="-917450542" speed="1.5"/>
    <stop busStop="-917450542" duration="298"/>
  </person>
  <person id="person_282" depart="2267" departLane="random" departSpeed="1.00" color="1,0,0">
    <walk from="-917450542" busStop="-917450542" speed="1.5"/>
    <stop busStop="-917450542" duration="388"/>
    <walk from="-917450542" to="1112806233" speed="1.5"/>
  </person>
  <person id="person_93" depart="2276" departLane="random" departSpeed="1.00" color="0,1,0">
    <walk from="-917450542" busStop="-917450542" speed="1.5"/>
    <ride line="trad_line" busStop="-917450542" to="1112806233"/>
    <walk edges="1112806233" speed="1.5"/>
  </person>
  <person id="person_281" depart="2282" departLane="random" departSpeed="1.00" color="0,1,0">
    <walk from="-4588647" busStop="-4588647" speed="1.5"/>
    <ride line="trad_line" busStop="-4588647" to="4588647"/>
    <walk edges="4588647" speed="1.5"/>
  </person>
  <person id="person_5" depart="2304" departLane="random" departSpeed="1.00" color="0,1,0">
    <walk from="-4588647" busStop="-4588647" speed="1.5"/>
    <ride line="trad_line" busStop="-4588647" to="1112806233"/>
    <walk edges="1112806233" speed="1.5"/>
  </person>
  <person id="person_88" depart="2310" departLane="random" departSpeed="1.00" color="0,1,0">
    <walk from="1112806233" busStop="1112806233" speed="1.5"/>
    <ride line="trad_line" busStop="1112806233" to="4588647"/>
    <walk edges="4588647" speed="1.5"/>
  </person>
  <person id="person_36" depart="2333" departLane="random" departSpeed="1.00" color="1,0,0">
    <walk from="1112806233" busStop="1112806233" speed="1.5"/>
    <stop busStop="1112806233" duration="122"/>
    <walk from="1112806233" to="4588647" speed="1.5"/>
  </person>
  <person id="person_175" depart="2349" departLane="random" departSpeed="1.00" color="1,0,0">
    <walk from="-917450542" busStop="-917450542" speed="1.5"/>
    <stop busStop="-917450542" duration="127"/>
    <walk from="-917450542" to="-4588647" speed="1.5"/>
  </person>