<?xml version='1.0' encoding='utf-8'?>
<routes>
  <person id="person_167" depart="0" departLane="random" departSpeed="1.00" color="0,1,0">
    <walk from="615456193#1" busStop="615456193#1" speed="1.5" />
    <ride from="615456193#1" to="161754856" lines="jeepney_0 jeepney_1 jeepney_2 jeepney_3 jeepney_4 jeepney_5 jeepney_6 jeepney_7 jeepney_8 jeepney_9 jeepney_10 jeepney_11 jeepney_12 jeepney_13 jeepney_14 jeepney_15 jeepney_16 jeepney_17 jeepney_18 jeepney_19 jeepney_20 jeepney_21 jeepney_22 jeepney_23 jeepney_24 jeepney_25 jeepney_26 jeepney_27 jeepney_28 jeepney_29 jeepney_30 jeepney_31 jeepney_32 jeepney_33 jeepney_34 jeepney_35 jeepney_36 jeepney_37 jeepney_38 jeepney_39 jeepney_40 jeepney_41 jeepney_42 jeepney_43 jeepney_44 jeepney_45 jeepney_46 jeepney_47 jeepney_48 jeepney_49 jeepney_50 jeepney_51 jeepney_52 jeepney_53 jeepney_54 jeepney_55 jeepney_56 jeepney_57 jeepney_58 jeepney_59 jeepney_60 jeepney_61 jeepney_62 jeepney_63 jeepney_64 jeepney_65 jeepney_66 jeepney_67 jeepney_68 jeepney_69 jeepney_70 jeepney_71 jeepney_72 jeepney_73 jeepney_74 jeepney_75 jeepney_76 jeepney_77 jeepney_78 jeepney_79 jeepney_80 jeepney_81 jeepney_82 jeepney_83 jeepney_84 jeepney_85 jeepney_86 jeepney_87 jeepney_88 jeepney_89 jeepney_90 jeepney_91 jeepney_92 jeepney_93 jeepney_94 jeepney_95 jeepney_96 jeepney_97 jeepney_98 jeepney_99 jeepney_100 jeepney_101 jeepney_102 jeepney_103 jeepney_104 jeepney_105 jeepney_106 jeepney_107 jeepney_108 jeepney_109 jeepney_110 jeepney_111 jeepney_112 jeepney_113 jeepney_114 jeepney_115 jeepney_116 jeepney_117 jeepney_118 jeepney_119 jeepney_120 jeepney_121 jeepney_122 jeepney_123 jeepney_124 jeepney_125 jeepney_126 jeepney_127 jeepney_128 jeepney_129 jeepney_130 jeepney_131 jeepney_132 jeepney_133 jeepney_134 jeepney_135 jeepney_136 jeepney_137 jeepney_138 jeepney_139 jeepney_140 jeepney_141 jeepney_142 jeepney_143 jeepney_144 jeepney_145 jeepney_146 jeepney_147 jeepney_148 jeepney_149 jeepney_150 jeepney_151 jeepney_152 jeepney_153 jeepney_154 jeepney_155 jeepney_156 jeepney_157 jeepney_158 jeepney_159 jeepney_160 jeepney_161 jeepney_162 jeepney_163 jeepney_164 jeepney_165 jeepney_166 jeepney_167 jeepney_168 jeepney_169 jeepney_170 jeepney_171 jeepney_172 jeepney_173 jeepney_174 jeepney_175 jeepney_176 jeepney_177 jeepney_178 jeepney_179 jeepney_180 jeepney_181 jeepney_182 jeepney_183 jeepney_184 jeepney_185 jeepney_186 jeepney_187 jeepney_188 jeepney_189 jeepney_190 jeepney_191 jeepney_192 jeepney_193 jeepney_194 jeepney_195 jeepney_196 jeepney_197 jeepney_198 jeepney_199 jeepney_200 jeepney_201 jeepney_202 jeepney_203 jeepney_204 modernjeepney_0 modernjeepney_1 modernjeepney_2 modernjeepney_3 modernjeepney_4 modernjeepney_5 modernjeepney_6 modernjeepney_7 modernjeepney_8 modernjeepney_9 modernjeepney_10 modernjeepney_11 modernjeepney_12 modernjeepney_13 modernjeepney_14 modernjeepney_15 modernjeepney_16 modernjeepney_17 modernjeepney_18 modernjeepney_19 modernjeepney_20 modernjeepney_21 modernjeepney_22 modernjeepney_23 modernjeepney_24 modernjeepney_25 modernjeepney_26 modernjeepney_27 modernjeepney_28 modernjeepney_29 modernjeepney_30 modernjeepney_31 modernjeepney_32 modernjeepney_33 modernjeepney_34 modernjeepney_35 modernjeepney_36" />
    <walk edges="161754856" speed="1.5" />
  </person>
  <person id="person_529" depart="0" departLane="random" departSpeed="1.00" color="0,1,0">
    <walk from="-1176045777" busStop="-1176045777" speed="1.5" />
    <ride from="-1176045777" to="-368461882#1" lines="jeepney_0 jeepney_1 jeepney_2 jeepney_3 jeepney_4 jeepney_5 jeepney_6 jeepney_7 jeepney_8 jeepney_9 jeepney_10 jeepney_11 jeepney_12 jeepney_13 jeepney_14 jeepney_15 jeepney_16 jeepney_17 jeepney_18 jeepney_19 jeepney_20 jeepney_21 jeepney_22 jeepney_23 jeepney_24 jeepney_25 jeepney_26 jeepney_27 jeepney_28 jeepney_29 jeepney_30 jeepney_31 jeepney_32 jeepney_33 jeepney_34 jeepney_35 jeepney_36 jeepney_37 jeepney_38 jeepney_39 jeepney_40 jeepney_41 jeepney_42 jeepney_43 jeepney_44 jeepney_45 jeepney_46 jeepney_47 jeepney_48 jeepney_49 jeepney_50 jeepney_51 jeepney_52 jeepney_53 jeepney_54 jeepney_55 jeepney_56 jeepney_57 jeepney_58 jeepney_59 jeepney_60 jeepney_61 jeepney_62 jeepney_63 jeepney_64 jeepney_65 jeepney_66 jeepney_67 jeepney_68 jeepney_69 jeepney_70 jeepney_71 jeepney_72 jeepney_73 jeepney_74 jeepney_75 jeepney_76 jeepney_77 jeepney_78 jeepney_79 jeepney_80 jeepney_81 jeepney_82 jeepney_83 jeepney_84 jeepney_85 jeepney_86 jeepney_87 jeepney_88 jeepney_89 jeepney_90 jeepney_91 jeepney_92 jeepney_93 jeepney_94 jeepney_95 jeepney_96 jeepney_97 jeepney_98 jeepney_99 jeepney_100 jeepney_101 jeepney_102 jeepney_103 jeepney_104 jeepney_105 jeepney_106 jeepney_107 jeepney_108 jeepney_109 jeepney_110 jeepney_111 jeepney_112 jeepney_113 jeepney_114 jeepney_115 jeepney_116 jeepney_117 jeepney_118 jeepney_119 jeepney_120 jeepney_121 jeepney_122 jeepney_123 jeepney_124 jeepney_125 jeepney_126 jeepney_127 jeepney_128 jeepney_129 jeepney_130 jeepney_131 jeepney_132 jeepney_133 jeepney_134 jeepney_135 jeepney_136 jeepney_137 jeepney_138 jeepney_139 jeepney_140 jeepney_141 jeepney_142 jeepney_143 jeepney_144 jeepney_145 jeepney_146 jeepney_147 jeepney_148 jeepney_149 jeepney_150 jeepney_151 jeepney_152 jeepney_153 jeepney_154 jeepney_155 jeepney_156 jeepney_157 jeepney_158 jeepney_159 jeepney_160 jeepney_161 jeepney_162 jeepney_163 jeepney_164 jeepney_165 jeepney_166 jeepney_167 jeepney_168 jeepney_169 jeepney_170 jeepney_171 jeepney_172 jeepney_173 jeepney_174 jeepney_175 jeepney_176 jeepney_177 jeepney_178 jeepney_179 jeepney_180 jeepney_181 jeepney_182 jeepney_183 jeepney_184 jeepney_185 jeepney_186 jeepney_187 jeepney_188 jeepney_189 jeepney_190 jeepney_191 jeepney_192 jeepney_193 jeepney_194 jeepney_195 jeepney_196 jeepney_197 jeepney_198 jeepney_199 jeepney_200 jeepney_201 jeepney_202 jeepney_203 jeepney_204 modernjeepney_0 modernjeepney_1 modernjeepney_2 modernjeepney_3 modernjeepney_4 modernjeepney_5 modernjeepney_6 modernjeepney_7 modernjeepney_8 modernjeepney_9 modernjeepney_10 modernjeepney_11 modernjeepney_12 modernjeepney_13 modernjeepney_14 modernjeepney_15 modernjeepney_16 modernjeepney_17 modernjeepney_18 modernjeepney_19 modernjeepney_20 modernjeepney_21 modernjeepney_22 modernjeepney_23 modernjeepney_24 modernjeepney_25 modernjeepney_26 modernjeepney_27 modernjeepney_28 modernjeepney_29 modernjeepney_30 modernjeepney_31 modernjeepney_32 modernjeepney_33 modernjeepney_34 modernjeepney_35 modernjeepney_36" />
    <walk edges="-368461882#1" speed="1.5" />
  </person>
  <person id="person_582" depart="0" departLane="random" departSpeed="1.00" color="0,1,0">
    <walk from="136822571#2" busStop="136822571#2" speed="1.5" />
    <ride from="136822571#2" to="-178615165" lines="jeepney_0 jeepney_1 jeepney_2 jeepney_3 jeepney_4 jeepney_5 jeepney_6 jeepney_7 jeepney_8 jeepney_9 jeepney_10 jeepney_11 jeepney_12 jeepney_13 jeepney_14 jeepney_15 jeepney_16 jeepney_17 jeepney_18 jeepney_19 jeepney_20 jeepney_21 jeepney_22 jeepney_23 jeepney_24 jeepney_25 jeepney_26 jeepney_27 jeepney_28 jeepney_29 jeepney_30 jeepney_31 jeepney_32 jeepney_33 jeepney_34 jeepney_35 jeepney_36 jeepney_37 jeepney_38 jeepney_39 jeepney_40 jeepney_41 jeepney_42 jeepney_43 jeepney_44 jeepney_45 jeepney_46 jeepney_47 jeepney_48 jeepney_49 jeepney_50 jeepney_51 jeepney_52 jeepney_53 jeepney_54 jeepney_55 jeepney_56 jeepney_57 jeepney_58 jeepney_59 jeepney_60 jeepney_61 jeepney_62 jeepney_63 jeepney_64 jeepney_65 jeepney_66 jeepney_67 jeepney_68 jeepney_69 jeepney_70 jeepney_71 jeepney_72 jeepney_73 jeepney_74 jeepney_75 jeepney_76 jeepney_77 jeepney_78 jeepney_79 jeepney_80 jeepney_81 jeepney_82 jeepney_83 jeepney_84 jeepney_85 jeepney_86 jeepney_87 jeepney_88 jeepney_89 jeepney_90 jeepney_91 jeepney_92 jeepney_93 jeepney_94 jeepney_95 jeepney_96 jeepney_97 jeepney_98 jeepney_99 jeepney_100 jeepney_101 jeepney_102 jeepney_103 jeepney_104 jeepney_105 jeepney_106 jeepney_107 jeepney_108 jeepney_109 jeepney_110 jeepney_111 jeepney_112 jeepney_113 jeepney_114 jeepney_115 jeepney_116 jeepney_117 jeepney_118 jeepney_119 jeepney_120 jeepney_121 jeepney_122 jeepney_123 jeepney_124 jeepney_125 jeepney_126 jeepney_127 jeepney_128 jeepney_129 jeepney_130 jeepney_131 jeepney_132 jeepney_133 jeepney_134 jeepney_135 jeepney_136 jeepney_137 jeepney_138 jeepney_139 jeepney_140 jeepney_141 jeepney_142 jeepney_143 jeepney_144 jeepney_145 jeepney_146 jeepney_147 jeepney_148 jeepney_149 jeepney_150 jeepney_151 jeepney_152 jeepney_153 jeepney_154 jeepney_155 jeepney_156 jeepney_157 jeepney_158 jeepney_159 jeepney_160 jeepney_161 jeepney_162 jeepney_163 jeepney_164 jeepney_165 jeepney_166 jeepney_167 jeepney_168 jeepney_169 jeepney_170 jeepney_171 jeepney_172 jeepney_173 jeepney_174 jeepney_175 jeepney_176 jeepney_177 jeepney_178 jeepney_179 jeepney_180 jeepney_181 jeepney_182 jeepney_183 jeepney_184 jeepney_185 jeepney_186 jeepney_187 jeepney_188 jeepney_189 jeepney_190 jeepney_191 jeepney_192 jeepney_193 jeepney_194 jeepney_195 jeepney_196 jeepney_197 jeepney_198 jeepney_199 jeepney_200 jeepney_201 jeepney_202 jeepney_203 jeepney_204 modernjeepney_0 modernjeepney_1 modernjeepney_2 modernjeepney_3 modernjeepney_4 modernjeepney_5 modernjeepney_6 modernjeepney_7 modernjeepney_8 modernjeepney_9 modernjeepney_10 modernjeepney_11 modernjeepney_12 modernjeepney_13 modernjeepney_14 modernjeepney_15 modernjeepney_16 modernjeepney_17 modernjeepney_18 modernjeepney_19 modernjeepney_20 modernjeepney_21 modernjeepney_22 modernjeepney_23 modernjeepney_24 modernjeepney_25 modernjeepney_26 modernjeepney_27 modernjeepney_28 modernjeepney_29 modernjeepney_30 modernjeepney_31 modernjeepney_32 modernjeepney_33 modernjeepney_34 modernjeepney_35 modernjeepney_36" />
    <walk edges="-178615165" speed="1.5" />
  </person>
  <person id="person_783" depart="0" departLane="random" departSpeed="1.00" color="0,1,0">
    <walk from="82694445#2" busStop="82694445#2" speed="1.5" />
    <ride from="82694445#2" to="-4588647#4" lines="jeepney_0 jeepney_1 jeepney_2 jeepney_3 jeepney_4 jeepney_5 jeepney_6 jeepney_7 jeepney_8 jeepney_9 jeepney_10 jeepney_11 jeepney_12 jeepney_13 jeepney_14 jeepney_15 jeepney_16 jeepney_17 jeepney_18 jeepney_19 jeepney_20 jeepney_21 jeepney_22 jeepney_23 jeepney_24 jeepney_25 jeepney_26 jeepney_27 jeepney_28 jeepney_29 jeepney_30 jeepney_31 jeepney_32 jeepney_33 jeepney_34 jeepney_35 jeepney_36 jeepney_37 jeepney_38 jeepney_39 jeepney_40 jeepney_41 jeepney_42 jeepney_43 jeepney_44 jeepney_45 jeepney_46 jeepney_47 jeepney_48 jeepney_49 jeepney_50 jeepney_51 jeepney_52 jeepney_53 jeepney_54 jeepney_55 jeepney_56 jeepney_57 jeepney_58 jeepney_59 jeepney_60 jeepney_61 jeepney_62 jeepney_63 jeepney_64 jeepney_65 jeepney_66 jeepney_67 jeepney_68 jeepney_69 jeepney_70 jeepney_71 jeepney_72 jeepney_73 jeepney_74 jeepney_75 jeepney_76 jeepney_77 jeepney_78 jeepney_79 jeepney_80 jeepney_81 jeepney_82 jeepney_83 jeepney_84 jeepney_85 jeepney_86 jeepney_87 jeepney_88 jeepney_89 jeepney_90 jeepney_91 jeepney_92 jeepney_93 jeepney_94 jeepney_95 jeepney_96 jeepney_97 jeepney_98 jeepney_99 jeepney_100 jeepney_101 jeepney_102 jeepney_103 jeepney_104 jeepney_105 jeepney_106 jeepney_107 jeepney_108 jeepney_109 jeepney_110 jeepney_111 jeepney_112 jeepney_113 jeepney_114 jeepney_115 jeepney_116 jeepney_117 jeepney_118 jeepney_119 jeepney_120 jeepney_121 jeepney_122 jeepney_123 jeepney_124 jeepney_125 jeepney_126 jeepney_127 jeepney_128 jeepney_129 jeepney_130 jeepney_131 jeepney_132 jeepney_133 jeepney_134 jeepney_135 jeepney_136 jeepney_137 jeepney_138 jeepney_139 jeepney_140 jeepney_141 jeepney_142 jeepney_143 jeepney_144 jeepney_145 jeepney_146 jeepney_147 jeepney_148 jeepney_149 jeepney_150 jeepney_151 jeepney_152 jeepney_153 jeepney_154 jeepney_155 jeepney_156 jeepney_157 jeepney_158 jeepney_159 jeepney_160 jeepney_161 jeepney_162 jeepney_163 jeepney_164 jeepney_165 jeepney_166 jeepney_167 jeepney_168 jeepney_169 jeepney_170 jeepney_171 jeepney_172 jeepney_173 jeepney_174 jeepney_175 jeepney_176 jeepney_177 jeepney_178 jeepney_179 jeepney_180 jeepney_181 jeepney_182 jeepney_183 jeepney_184 jeepney_185 jeepney_186 jeepney_187 jeepney_188 jeepney_189 jeepney_190 jeepney_191 jeepney_192 jeepney_193 jeepney_194 jeepney_195 jeepney_196 jeepney_197 jeepney_198 jeepney_199 jeepney_200 jeepney_201 jeepney_202 jeepney_203 jeepney_204 modernjeepney_0 modernjeepney_1 modernjeepney_2 modernjeepney_3 modernjeepney_4 modernjeepney_5 modernjeepney_6 modernjeepney_7 modernjeepney_8 modernjeepney_9 modernjeepney_10 modernjeepney_11 modernjeepney_12 modernjeepney_13 modernjeepney_14 modernjeepney_15 modernjeepney_16 modernjeepney_17 modernjeepney_18 modernjeepney_19 modernjeepney_20 modernjeepney_21 modernjeepney_22 modernjeepney_23 modernjeepney_24 modernjeepney_25 modernjeepney_26 modernjeepney_27 modernjeepney_28 modernjeepney_29 modernjeepney_30 modernjeepney_31 modernjeepney_32 modernjeepney_33 modernjeepney_34 modernjeepney_35 modernjeepney_36" />
    <walk edges="-4588647#4" speed="1.5" />
  </person>
  <person id="person_855" depart="0" departLane="random" departSpeed="1.00" color="1,0,0">
    <walk from="820063587#0" busStop="820063587#0" speed="1.5" />
    <stop busStop="820063587#0" duration="540" />
    <walk from="820063587#0" to="757990561" speed="1.5" />
  </person>
  <person id="person_218" depart="1" departLane="random" departSpeed="1.00" color="1,0,0">
    <walk from="176435844#3" busStop="176435844#3" speed="1.5" />
    <stop busStop="176435844#3" duration="246" />
    <walk from="176435844#3" to="-694268909#0" speed="1.5" />
  </person>
  <person id="person_29" depart="2" departLane="random" departSpeed="1.00" color="1,0,1">
    <walk from="-615478344#0" busStop="-615478344#0" speed="1.5" />
    <stop busStop="-615478344#0" duration="253" />
  </person>
  <person id="person_117" depart="2" departLane="random" departSpeed="1.00" color="0,1,0">
    <walk from="176435849" busStop="176435849" speed="1.5" />
    <ride from="176435849" to="-694268909#0" lines="jeepney_0 jeepney_1 jeepney_2 jeepney_3 jeepney_4 jeepney_5 jeepney_6 jeepney_7 jeepney_8 jeepney_9 jeepney_10 jeepney_11 jeepney_12 jeepney_13 jeepney_14 jeepney_15 jeepney_16 jeepney_17 jeepney_18 jeepney_19 jeepney_20 jeepney_21 jeepney_22 jeepney_23 jeepney_24 jeepney_25 jeepney_26 jeepney_27 jeepney_28 jeepney_29 jeepney_30 jeepney_31 jeepney_32 jeepney_33 jeepney_34 jeepney_35 jeepney_36 jeepney_37 jeepney_38 jeepney_39 jeepney_40 jeepney_41 jeepney_42 jeepney_43 jeepney_44 jeepney_45 jeepney_46 jeepney_47 jeepney_48 jeepney_49 jeepney_50 jeepney_51 jeepney_52 jeepney_53 jeepney_54 jeepney_55 jeepney_56 jeepney_57 jeepney_58 jeepney_59 jeepney_60 jeepney_61 jeepney_62 jeepney_63 jeepney_64 jeepney_65 jeepney_66 jeepney_67 jeepney_68 jeepney_69 jeepney_70 jeepney_71 jeepney_72 jeepney_73 jeepney_74 jeepney_75 jeepney_76 jeepney_77 jeepney_78 jeepney_79 jeepney_80 jeepney_81 jeepney_82 jeepney_83 jeepney_84 jeepney_85 jeepney_86 jeepney_87 jeepney_88 jeepney_89 jeepney_90 jeepney_91 jeepney_92 jeepney_93 jeepney_94 jeepney_95 jeepney_96 jeepney_97 jeepney_98 jeepney_99 jeepney_100 jeepney_101 jeepney_102 jeepney_103 jeepney_104 jeepney_105 jeepney_106 jeepney_107 jeepney_108 jeepney_109 jeepney_110 jeepney_111 jeepney_112 jeepney_113 jeepney_114 jeepney_115 jeepney_116 jeepney_117 jeepney_118 jeepney_119 jeepney_120 jeepney_121 jeepney_122 jeepney_123 jeepney_124 jeepney_125 jeepney_126 jeepney_127 jeepney_128 jeepney_129 jeepney_130 jeepney_131 jeepney_132 jeepney_133 jeepney_134 jeepney_135 jeepney_136 jeepney_137 jeepney_138 jeepney_139 jeepney_140 jeepney_141 jeepney_142 jeepney_143 jeepney_144 jeepney_145 jeepney_146 jeepney_147 jeepney_148 jeepney_149 jeepney_150 jeepney_151 jeepney_152 jeepney_153 jeepney_154 jeepney_155 jeepney_156 jeepney_157 jeepney_158 jeepney_159 jeepney_160 jeepney_161 jeepney_162 jeepney_163 jeepney_164 jeepney_165 jeepney_166 jeepney_167 jeepney_168 jeepney_169 jeepney_170 jeepney_171 jeepney_172 jeepney_173 jeepney_174 jeepney_175 jeepney_176 jeepney_177 jeepney_178 jeepney_179 jeepney_180 jeepney_181 jeepney_182 jeepney_183 jeepney_184 jeepney_185 jeepney_186 jeepney_187 jeepney_188 jeepney_189 jeepney_190 jeepney_191 jeepney_192 jeepney_193 jeepney_194 jeepney_195 jeepney_196 jeepney_197 jeepney_198 jeepney_199 jeepney_200 jeepney_201 jeepney_202 jeepney_203 jeepney_204 modernjeepney_0 modernjeepney_1 modernjeepney_2 modernjeepney_3 modernjeepney_4 modernjeepney_5 modernjeepney_6 modernjeepney_7 modernjeepney_8 modernjeepney_9 modernjeepney_10 modernjeepney_11 modernjeepney_12 modernjeepney_13 modernjeepney_14 modernjeepney_15 modernjeepney_16 modernjeepney_17 modernjeepney_18 modernjeepney_19 modernjeepney_20 modernjeepney_21 modernjeepney_22 modernjeepney_23 modernjeepney_24 modernjeepney_25 modernjeepney_26 modernjeepney_27 modernjeepney_28 modernjeepney_29 modernjeepney_30 modernjeepney_31 modernjeepney_32 modernjeepney_33 modernjeepney_34 modernjeepney_35 modernjeepney_36" />
    <walk edges="-694268909#0" speed="1.5" />
  </person>
  <person id="person_384" depart="2" departLane="random" departSpeed="1.00" color="0,1,0">
    <walk from="-694268909#1" busStop="-694268909#1" speed="1.5" />
    <ride from="-694268909#1" to="-303412427#16" lines="jeepney_0 jeepney_1 jeepney_2 jeepney_3 jeepney_4 jeepney_5 jeepney_6 jeepney_7 jeepney_8 jeepney_9 jeepney_10 jeepney_11 jeepney_12 jeepney_13 jeepney_14 jeepney_15 jeepney_16 jeepney_17 jeepney_18 jeepney_19 jeepney_20 jeepney_21 jeepney_22 jeepney_23 jeepney_24 jeepney_25 jeepney_26 jeepney_27 jeepney_28 jeepney_29 jeepney_30 jeepney_31 jeepney_32 jeepney_33 jeepney_34 jeepney_35 jeepney_36 jeepney_37 jeepney_38 jeepney_39 jeepney_40 jeepney_41 jeepney_42 jeepney_43 jeepney_44 jeepney_45 jeepney_46 jeepney_47 jeepney_48 jeepney_49 jeepney_50 jeepney_51 jeepney_52 jeepney_53 jeepney_54 jeepney_55 jeepney_56 jeepney_57 jeepney_58 jeepney_59 jeepney_60 jeepney_61 jeepney_62 jeepney_63 jeepney_64 jeepney_65 jeepney_66 jeepney_67 jeepney_68 jeepney_69 jeepney_70 jeepney_71 jeepney_72 jeepney_73 jeepney_74 jeepney_75 jeepney_76 jeepney_77 jeepney_78 jeepney_79 jeepney_80 jeepney_81 jeepney_82 jeepney_83 jeepney_84 jeepney_85 jeepney_86 jeepney_87 jeepney_88 jeepney_89 jeepney_90 jeepney_91 jeepney_92 jeepney_93 jeepney_94 jeepney_95 jeepney_96 jeepney_97 jeepney_98 jeepney_99 jeepney_100 jeepney_101 jeepney_102 jeepney_103 jeepney_104 jeepney_105 jeepney_106 jeepney_107 jeepney_108 jeepney_109 jeepney_110 jeepney_111 jeepney_112 jeepney_113 jeepney_114 jeepney_115 jeepney_116 jeepney_117 jeepney_118 jeepney_119 jeepney_120 jeepney_121 jeepney_122 jeepney_123 jeepney_124 jeepney_125 jeepney_126 jeepney_127 jeepney_128 jeepney_129 jeepney_130 jeepney_131 jeepney_132 jeepney_133 jeepney_134 jeepney_135 jeepney_136 jeepney_137 jeepney_138 jeepney_139 jeepney_140 jeepney_141 jeepney_142 jeepney_143 jeepney_144 jeepney_145 jeepney_146 jeepney_147 jeepney_148 jeepney_149 jeepney_150 jeepney_151 jeepney_152 jeepney_153 jeepney_154 jeepney_155 jeepney_156 jeepney_157 jeepney_158 jeepney_159 jeepney_160 jeepney_161 jeepney_162 jeepney_163 jeepney_164 jeepney_165 jeepney_166 jeepney_167 jeepney_168 jeepney_169 jeepney_170 jeepney_171 jeepney_172 jeepney_173 jeepney_174 jeepney_175 jeepney_176 jeepney_177 jeepney_178 jeepney_179 jeepney_180 jeepney_181 jeepney_182 jeepney_183 jeepney_184 jeepney_185 jeepney_186 jeepney_187 jeepney_188 jeepney_189 jeepney_190 jeepney_191 jeepney_192 jeepney_193 jeepney_194 jeepney_195 jeepney_196 jeepney_197 jeepney_198 jeepney_199 jeepney_200 jeepney_201 jeepney_202 jeepney_203 jeepney_204 modernjeepney_0 modernjeepney_1 modernjeepney_2 modernjeepney_3 modernjeepney_4 modernjeepney_5 modernjeepney_6 modernjeepney_7 modernjeepney_8 modernjeepney_9 modernjeepney_10 modernjeepney_11 modernjeepney_12 modernjeepney_13 modernjeepney_14 modernjeepney_15 modernjeepney_16 modernjeepney_17 modernjeepney_18 modernjeepney_19 modernjeepney_20 modernjeepney_21 modernjeepney_22 modernjeepney_23 modernjeepney_24 modernjeepney_25 modernjeepney_26 modernjeepney_27 modernjeepney_28 modernjeepney_29 modernjeepney_30 modernjeepney_31 modernjeepney_32 modernjeepney_33 modernjeepney_34 modernjeepney_35 modernjeepney_36" />
    <walk edges="-303412427#16" speed="1.5" />
  </person>
  <person id="person_832" depart="4" departLane="random" departSpeed="1.00" color="1,0,0">
    <walk from="820063582#0" busStop="820063582#0" speed="1.5" />
    <stop busStop="820063582#0" duration="570" />
    <walk from="820063582#0" to="-615478345" speed="1.5" />
  </person>
  <person id="person_13" depart="5" departLane="random" departSpeed="1.00" color="1,0,1">
    <walk from="615478345" busStop="615478345" speed="1.5" />
    <stop busStop="615478345" duration="284" />
  </person>
  <person id="person_490" depart="5" departLane="random" departSpeed="1.00" color="1,0,1">
    <walk from="32981461" busStop="32981461" speed="1.5" />
    <stop busStop="32981461" duration="591" />
  </person>
  <person id="person_509" depart="5" departLane="random" departSpeed="1.00" color="0,1,0">
    <walk from="615456193#2" busStop="615456193#2" speed="1.5" />
    <ride from="615456193#2" to="161754855#1" lines="jeepney_0 jeepney_1 jeepney_2 jeepney_3 jeepney_4 jeepney_5 jeepney_6 jeepney_7 jeepney_8 jeepney_9 jeepney_10 jeepney_11 jeepney_12 jeepney_13 jeepney_14 jeepney_15 jeepney_16 jeepney_17 jeepney_18 jeepney_19 jeepney_20 jeepney_21 jeepney_22 jeepney_23 jeepney_24 jeepney_25 jeepney_26 jeepney_27 jeepney_28 jeepney_29 jeepney_30 jeepney_31 jeepney_32 jeepney_33 jeepney_34 jeepney_35 jeepney_36 jeepney_37 jeepney_38 jeepney_39 jeepney_40 jeepney_41 jeepney_42 jeepney_43 jeepney_44 jeepney_45 jeepney_46 jeepney_47 jeepney_48 jeepney_49 jeepney_50 jeepney_51 jeepney_52 jeepney_53 jeepney_54 jeepney_55 jeepney_56 jeepney_57 jeepney_58 jeepney_59 jeepney_60 jeepney_61 jeepney_62 jeepney_63 jeepney_64 jeepney_65 jeepney_66 jeepney_67 jeepney_68 jeepney_69 jeepney_70 jeepney_71 jeepney_72 jeepney_73 jeepney_74 jeepney_75 jeepney_76 jeepney_77 jeepney_78 jeepney_79 jeepney_80 jeepney_81 jeepney_82 jeepney_83 jeepney_84 jeepney_85 jeepney_86 jeepney_87 jeepney_88 jeepney_89 jeepney_90 jeepney_91 jeepney_92 jeepney_93 jeepney_94 jeepney_95 jeepney_96 jeepney_97 jeepney_98 jeepney_99 jeepney_100 jeepney_101 jeepney_102 jeepney_103 jeepney_104 jeepney_105 jeepney_106 jeepney_107 jeepney_108 jeepney_109 jeepney_110 jeepney_111 jeepney_112 jeepney_113 jeepney_114 jeepney_115 jeepney_116 jeepney_117 jeepney_118 jeepney_119 jeepney_120 jeepney_121 jeepney_122 jeepney_123 jeepney_124 jeepney_125 jeepney_126 jeepney_127 jeepney_128 jeepney_129 jeepney_130 jeepney_131 jeepney_132 jeepney_133 jeepney_134 jeepney_135 jeepney_136 jeepney_137 jeepney_138 jeepney_139 jeepney_140 jeepney_141 jeepney_142 jeepney_143 jeepney_144 jeepney_145 jeepney_146 jeepney_147 jeepney_148 jeepney_149 jeepney_150 jeepney_151 jeepney_152 jeepney_153 jeepney_154 jeepney_155 jeepney_156 jeepney_157 jeepney_158 jeepney_159 jeepney_160 jeepney_161 jeepney_162 jeepney_163 jeepney_164 jeepney_165 jeepney_166 jeepney_167 jeepney_168 jeepney_169 jeepney_170 jeepney_171 jeepney_172 jeepney_173 jeepney_174 jeepney_175 jeepney_176 jeepney_177 jeepney_178 jeepney_179 jeepney_180 jeepney_181 jeepney_182 jeepney_183 jeepney_184 jeepney_185 jeepney_186 jeepney_187 jeepney_188 jeepney_189 jeepney_190 jeepney_191 jeepney_192 jeepney_193 jeepney_194 jeepney_195 jeepney_196 jeepney_197 jeepney_198 jeepney_199 jeepney_200 jeepney_201 jeepney_202 jeepney_203 jeepney_204 modernjeepney_0 modernjeepney_1 modernjeepney_2 modernjeepney_3 modernjeepney_4 modernjeepney_5 modernjeepney_6 modernjeepney_7 modernjeepney_8 modernjeepney_9 modernjeepney_10 modernjeepney_11 modernjeepney_12 modernjeepney_13 modernjeepney_14 modernjeepney_15 modernjeepney_16 modernjeepney_17 modernjeepney_18 modernjeepney_19 modernjeepney_20 modernjeepney_21 modernjeepney_22 modernjeepney_23 modernjeepney_24 modernjeepney_25 modernjeepney_26 modernjeepney_27 modernjeepney_28 modernjeepney_29 modernjeepney_30 modernjeepney_31 modernjeepney_32 modernjeepney_33 modernjeepney_34 modernjeepney_35 modernjeepney_36" />
    <walk edges="161754855#1" speed="1.5" />
  </person>
  <person id="person_746" depart="5" departLane="random" departSpeed="1.00" color="1,0,1">
    <walk from="82694445#2" busStop="82694445#2" speed="1.5" />
    <stop busStop="82694445#2" duration="139" />
  </person>
  <person id="person_873" depart="5" departLane="random" departSpeed="1.00" color="0,1,0">
    <walk from="310627474#1" busStop="310627474#1" speed="1.5" />
    <ride from="310627474#1" to="4258656#0" lines="jeepney_0 jeepney_1 jeepney_2 jeepney_3 jeepney_4 jeepney_5 jeepney_6 jeepney_7 jeepney_8 jeepney_9 jeepney_10 jeepney_11 jeepney_12 jeepney_13 jeepney_14 jeepney_15 jeepney_16 jeepney_17 jeepney_18 jeepney_19 jeepney_20 jeepney_21 jeepney_22 jeepney_23 jeepney_24 jeepney_25 jeepney_26 jeepney_27 jeepney_28 jeepney_29 jeepney_30 jeepney_31 jeepney_32 jeepney_33 jeepney_34 jeepney_35 jeepney_36 jeepney_37 jeepney_38 jeepney_39 jeepney_40 jeepney_41 jeepney_42 jeepney_43 jeepney_44 jeepney_45 jeepney_46 jeepney_47 jeepney_48 jeepney_49 jeepney_50 jeepney_51 jeepney_52 jeepney_53 jeepney_54 jeepney_55 jeepney_56 jeepney_57 jeepney_58 jeepney_59 jeepney_60 jeepney_61 jeepney_62 jeepney_63 jeepney_64 jeepney_65 jeepney_66 jeepney_67 jeepney_68 jeepney_69 jeepney_70 jeepney_71 jeepney_72 jeepney_73 jeepney_74 jeepney_75 jeepney_76 jeepney_77 jeepney_78 jeepney_79 jeepney_80 jeepney_81 jeepney_82 jeepney_83 jeepney_84 jeepney_85 jeepney_86 jeepney_87 jeepney_88 jeepney_89 jeepney_90 jeepney_91 jeepney_92 jeepney_93 jeepney_94 jeepney_95 jeepney_96 jeepney_97 jeepney_98 jeepney_99 jeepney_100 jeepney_101 jeepney_102 jeepney_103 jeepney_104 jeepney_105 jeepney_106 jeepney_107 jeepney_108 jeepney_109 jeepney_110 jeepney_111 jeepney_112 jeepney_113 jeepney_114 jeepney_115 jeepney_116 jeepney_117 jeepney_118 jeepney_119 jeepney_120 jeepney_121 jeepney_122 jeepney_123 jeepney_124 jeepney_125 jeepney_126 jeepney_127 jeepney_128 jeepney_129 jeepney_130 jeepney_131 jeepney_132 jeepney_133 jeepney_134 jeepney_135 jeepney_136 jeepney_137 jeepney_138 jeepney_139 jeepney_140 jeepney_141 jeepney_142 jeepney_143 jeepney_144 jeepney_145 jeepney_146 jeepney_147 jeepney_148 jeepney_149 jeepney_150 jeepney_151 jeepney_152 jeepney_153 jeepney_154 jeepney_155 jeepney_156 jeepney_157 jeepney_158 jeepney_159 jeepney_160 jeepney_161 jeepney_162 jeepney_163 jeepney_164 jeepney_165 jeepney_166 jeepney_167 jeepney_168 jeepney_169 jeepney_170 jeepney_171 jeepney_172 jeepney_173 jeepney_174 jeepney_175 jeepney_176 jeepney_177 jeepney_178 jeepney_179 jeepney_180 jeepney_181 jeepney_182 jeepney_183 jeepney_184 jeepney_185 jeepney_186 jeepney_187 jeepney_188 jeepney_189 jeepney_190 jeepney_191 jeepney_192 jeepney_193 jeepney_194 jeepney_195 jeepney_196 jeepney_197 jeepney_198 jeepney_199 jeepney_200 jeepney_201 jeepney_202 jeepney_203 jeepney_204 modernjeepney_0 modernjeepney_1 modernjeepney_2 modernjeepney_3 modernjeepney_4 modernjeepney_5 modernjeepney_6 modernjeepney_7 modernjeepney_8 modernjeepney_9 modernjeepney_10 modernjeepney_11 modernjeepney_12 modernjeepney_13 modernjeepney_14 modernjeepney_15 modernjeepney_16 modernjeepney_17 modernjeepney_18 modernjeepney_19 modernjeepney_20 modernjeepney_21 modernjeepney_22 modernjeepney_23 modernjeepney_24 modernjeepney_25 modernjeepney_26 modernjeepney_27 modernjeepney_28 modernjeepney_29 modernjeepney_30 modernjeepney_31 modernjeepney_32 modernjeepney_33 modernjeepney_34 modernjeepney_35 modernjeepney_36" />
    <walk edges="4258656#0" speed="1.5" />
  </person>
  <person id="person_95" depart="6" departLane="random" departSpeed="1.00" color="0,1,0">
    <walk from="107396681#4" busStop="107396681#4" speed="1.5" />