<?xml version='1.0' encoding='utf-8'?>
<routes>
  <person id="person_54" depart="1" departLane="random" departSpeed="1.00" color="1,0,0">
    <walk from="-4332734#2" busStop="-4332734#2" speed="1.5" />
    <stop busStop="-4332734#2" duration="121" />
    <walk from="-4332734#2" to="-615478344#0" speed="1.5" />
  </person>
  <person id="person_605" depart="1" departLane="random" departSpeed="1.00" color="1,0,1">
    <walk from="-303412427#16" busStop="-303412427#16" speed="1.5" />
    <stop busStop="-303412427#16" duration="393" />
  </person>
  <person id="person_545" depart="2" departLane="random" departSpeed="1.00" color="1,0,1">
    <walk from="4332734#6" busStop="4332734#6" speed="1.5" />
    <stop busStop="4332734#6" duration="59" />
  </person>
  <person id="person_618" depart="2" departLane="random" departSpeed="1.00" color="0,1,0">
    <walk from="-82694445#2" busStop="-82694445#2" speed="1.5" />
    <ride from="-82694445#2" to="-303412427#9" lines="jeepney_0 jeepney_1 jeepney_2 jeepney_3 jeepney_4 jeepney_5 jeepney_6 jeepney_7 jeepney_8 jeepney_9 jeepney_10 modernjeepney_0 modernjeepney_1" />
    <walk edges="-303412427#9" speed="1.5" />
  </person>
  <person id="person_491" depart="3" departLane="random" departSpeed="1.00" color="1,0,0">
    <walk from="704746733#0" busStop="704746733#0" speed="1.5" />
    <stop busStop="704746733#0" duration="318" />
    <walk from="704746733#0" to="-303412427#14" speed="1.5" />
  </person>
  <person id="person_624" depart="3" departLane="random" departSpeed="1.00" color="1,0,0">
    <walk from="1072039865#1" busStop="1072039865#1" speed="1.5" />
    <stop busStop="1072039865#1" duration="77" />
    <walk from="1072039865#1" to="745183362" speed="1.5" />
  </person>
  <person id="person_755" depart="4" departLane="random" departSpeed="1.00" color="0,1,0">
    <walk from="121188638" busStop="121188638" speed="1.5" />
    <ride from="121188638" to="-1176045777" lines="jeepney_0 jeepney_1 jeepney_2 jeepney_3 jeepney_4 jeepney_5 jeepney_6 jeepney_7 jeepney_8 jeepney_9 jeepney_10 modernjeepney_0 modernjeepney_1" />
    <walk edges="-1176045777" speed="1.5" />
  </person>
  <person id="person_782" depart="5" departLane="random" departSpeed="1.00" color="0,1,0">
    <walk from="4258656#2" busStop="4258656#2" speed="1.5" />
    <ride from="4258656#2" to="-924607337#1" lines="jeepney_0 jeepney_1 jeepney_2 jeepney_3 jeepney_4 jeepney_5 jeepney_6 jeepney_7 jeepney_8 jeepney_9 jeepney_10 modernjeepney_0 modernjeepney_1" />
    <walk edges="-924607337#1" speed="1.5" />
  </person>
  <person id="person_255" depart="6" departLane="random" departSpeed="1.00" color="1,0,1">
    <walk from="368461882#1" busStop="368461882#1" speed="1.5" />
    <stop busStop="368461882#1" duration="595" />
  </person>
  <person id="person_297" depart="6" departLane="random" departSpeed="1.00" color="1,0,0">
    <walk from="303412427#5" busStop="303412427#5" speed="1.5" />
    <stop busStop="303412427#5" duration="84" />
    <walk from="303412427#5" to="5019952#2" speed="1.5" />
  </person>
  <person id="person_664" depart="6" departLane="random" departSpeed="1.00" color="1,0,1">
    <walk from="136822571#1" busStop="136822571#1" speed="1.5" />
    <stop busStop="136822571#1" duration="337" />
  </person>
  <person id="person_398" depart="7" departLane="random" departSpeed="1.00" color="1,0,0">
    <walk from="-82694445#1" busStop="-82694445#1" speed="1.5" />
    <stop busStop="-82694445#1" duration="187" />
    <walk from="-82694445#1" to="-615478345" speed="1.5" />
  </person>
  <person id="person_71" depart="8" departLane="random" departSpeed="1.00" color="1,0,0">
    <walk from="161754854#0" busStop="161754854#0" speed="1.5" />
    <stop busStop="161754854#0" duration="411" />
    <walk from="161754854#0" to="310627474#3" speed="1.5" />
  </person>
  <person id="person_355" depart="8" departLane="random" departSpeed="1.00" color="1,0,1">
    <walk from="-1076442002" busStop="-1076442002" speed="1.5" />
    <stop busStop="-1076442002" duration="553" />
  </person>
  <person id="person_474" depart="8" departLane="random" departSpeed="1.00" color="0,1,0">
    <walk from="402897988#1" busStop="402897988#1" speed="1.5" />
    <ride from="402897988#1" to="4258656#2" lines="jeepney_0 jeepney_1 jeepney_2 jeepney_3 jeepney_4 jeepney_5 jeepney_6 jeepney_7 jeepney_8 jeepney_9 jeepney_10 modernjeepney_0 modernjeepney_1" />
    <walk edges="4258656#2" speed="1.5" />
  </person>
  <person id="person_567" depart="8" departLane="random" departSpeed="1.00" color="1,0,1">
    <walk from="4332734#1" busStop="4332734#1" speed="1.5" />
    <stop busStop="4332734#1" duration="75" />
  </person>
  <person id="person_118" depart="9" departLane="random" departSpeed="1.00" color="0,1,0">
    <walk from="136822587#3" busStop="136822587#3" speed="1.5" />
    <ride from="136822587#3" to="161754855#1" lines="jeepney_0 jeepney_1 jeepney_2 jeepney_3 jeepney_4 jeepney_5 jeepney_6 jeepney_7 jeepney_8 jeepney_9 jeepney_10 modernjeepney_0 modernjeepney_1" />
    <walk edges="161754855#1" speed="1.5" />
  </person>
  <person id="person_144" depart="9" departLane="random" departSpeed="1.00" color="0,1,0">
    <walk from="303412427#1" busStop="303412427#1" speed="1.5" />
    <ride from="303412427#1" to="303412427#16" lines="jeepney_0 jeepney_1 jeepney_2 jeepney_3 jeepney_4 jeepney_5 jeepney_6 jeepney_7 jeepney_8 jeepney_9 jeepney_10 modernjeepney_0 modernjeepney_1" />
    <walk edges="303412427#16" speed="1.5" />
  </person>
  <person id="person_264" depart="10" departLane="random" departSpeed="1.00" color="1,0,1">
    <walk from="-4588647#5" busStop="-4588647#5" speed="1.5" />
    <stop busStop="-4588647#5" duration="225" />
  </person>
  <person id="person_210" depart="11" departLane="random" departSpeed="1.00" color="1,0,1">
    <walk from="757990561" busStop="757990561" speed="1.5" />
    <stop busStop="757990561" duration="121" />
  </person>
  <person id="person_408" depart="11" departLane="random" departSpeed="1.00" color="1,0,0">
    <walk from="82694445#2" busStop="82694445#2" speed="1.5" />
    <stop busStop="82694445#2" duration="63" />
    <walk from="82694445#2" to="54338767#2" speed="1.5" />
  </person>
  <person id="person_145" depart="12" departLane="random" departSpeed="1.00" color="0,1,0">
    <walk from="303412427#8" busStop="303412427#8" speed="1.5" />
    <ride from="303412427#8" to="4332734#4" lines="jeepney_0 jeepney_1 jeepney_2 jeepney_3 jeepney_4 jeepney_5 jeepney_6 jeepney_7 jeepney_8 jeepney_9 jeepney_10 modernjeepney_0 modernjeepney_1" />
    <walk edges="4332734#4" speed="1.5" />
  </person>
  <person id="person_437" depart="12" departLane="random" departSpeed="1.00" color="1,0,0">
    <walk from="820063582#1" busStop="820063582#1" speed="1.5" />
    <stop busStop="820063582#1" duration="462" />
    <walk from="820063582#1" to="48630242#1" speed="1.5" />
  </person>
  <person id="person_532" depart="13" departLane="random" departSpeed="1.00" color="1,0,0">
    <walk from="-615456193#0" busStop="-615456193#0" speed="1.5" />
    <stop busStop="-615456193#0" duration="440" />
    <walk from="-615456193#0" to="-924607337#4" speed="1.5" />
  </person>
  <person id="person_802" depart="13" departLane="random" departSpeed="1.00" color="1,0,1">
    <walk from="369686026" busStop="369686026" speed="1.5" />
    <stop busStop="369686026" duration="567" />
  </person>
  <person id="person_384" depart="14" departLane="random" departSpeed="1.00" color="1,0,0">
    <walk from="16174062#1" busStop="16174062#1" speed="1.5" />
    <stop busStop="16174062#1" duration="80" />
    <walk from="16174062#1" to="16174062#4" speed="1.5" />
  </person>
  <person id="person_172" depart="15" departLane="random" departSpeed="1.00" color="1,0,0">
    <walk from="615456195" busStop="615456195" speed="1.5" />
    <stop busStop="615456195" duration="390" />
    <walk from="615456195" to="136822587#1" speed="1.5" />
  </person>
  <person id="person_392" depart="15" departLane="random" departSpeed="1.00" color="1,0,0">
    <walk from="-924607337#0" busStop="-924607337#0" speed="1.5" />
    <stop busStop="-924607337#0" duration="310" />
    <walk from="-924607337#0" to="-303412427#7" speed="1.5" />
  </person>
  <person id="person_583" depart="15" departLane="random" departSpeed="1.00" color="1,0,0">
    <walk from="-303412427#13" busStop="-303412427#13" speed="1.5" />
    <stop busStop="-303412427#13" duration="327" />
    <walk from="-303412427#13" to="-29377703#1" speed="1.5" />
  </person>
  <person id="person_764" depart="15" departLane="random" departSpeed="1.00" color="1,0,0">
    <walk from="4332734#6" busStop="4332734#6" speed="1.5" />
    <stop busStop="4332734#6" duration="450" />
    <walk from="4332734#6" to="-1176045777" speed="1.5" />
  </person>
  <person id="person_531" depart="16" departLane="random" departSpeed="1.00" color="1,0,0">
    <walk from="303412427#5" busStop="303412427#5" speed="1.5" />
    <stop busStop="303412427#5" duration="496" />
    <walk from="303412427#5" to="924607337#3" speed="1.5" />
  </person>
  <person id="person_39" depart="17" departLane="random" departSpeed="1.00" color="1,0,0">
    <walk from="-303412427#7" busStop="-303412427#7" speed="1.5" />
    <stop busStop="-303412427#7" duration="149" />
    <walk from="-303412427#7" to="-303412427#1" speed="1.5" />
  </person>
  <person id="person_275" depart="17" departLane="random" departSpeed="1.00" color="1,0,1">
    <walk from="5019952#4" busStop="5019952#4" speed="1.5" />
    <stop busStop="5019952#4" duration="324" />
  </person>
  <person id="person_317" depart="17" departLane="random" departSpeed="1.00" color="0,1,0">
    <walk from="-4588647#5" busStop="-4588647#5" speed="1.5" />
    <ride from="-4588647#5" to="-303412427#7" lines="jeepney_0 jeepney_1 jeepney_2 jeepney_3 jeepney_4 jeepney_5 jeepney_6 jeepney_7 jeepney_8 jeepney_9 jeepney_10 modernjeepney_0 modernjeepney_1" />
    <walk edges="-303412427#7" speed="1.5" />
  </person>
  <person id="person_38" depart="18" departLane="random" departSpeed="1.00" color="1,0,0">
    <walk from="575729108#2" busStop="575729108#2" speed="1.5" />
    <stop busStop="575729108#2" duration="107" />
    <walk from="575729108#2" to="745183362" speed="1.5" />
  </person>
  <person id="person_720" depart="18" departLane="random" departSpeed="1.00" color="1,0,0">
    <walk from="-4478182" busStop="-4478182" speed="1.5" />
    <stop busStop="-4478182" duration="543" />
    <walk from="-4478182" to="161754855#0" speed="1.5" />
  </person>
  <person id="person_106" depart="19" departLane="random" departSpeed="1.00" color="1,0,1">
    <walk from="820063582#0" busStop="820063582#0" speed="1.5" />
    <stop busStop="820063582#0" duration="302" />
  </person>
  <person id="person_238" depart="19" departLane="random" departSpeed="1.00" color="1,0,0">
    <walk from="-575729555" busStop="-575729555" speed="1.5" />
    <stop busStop="-575729555" duration="254" />
    <walk from="-575729555" to="126342419" speed="1.5" />
  </person>
  <person id="person_390" depart="19" departLane="random" departSpeed="1.00" color="1,0,0">
    <walk from="820063582#0" busStop="820063582#0" speed="1.5" />
    <stop busStop="820063582#0" duration="289" />
    <walk from="820063582#0" to="940627086" speed="1.5" />
  </person>
  <person id="person_436" depart="19" departLane="random" departSpeed="1.00" color="1,0,1">
    <walk from="-1076442002" busStop="-1076442002" speed="1.5" />
    <stop busStop="-1076442002" duration="34" />
  </person>
  <person id="person_714" depart="20" departLane="random" departSpeed="1.00" color="1,0,1">
    <walk from="-1076442002" busStop="-1076442002" speed="1.5" />
    <stop busStop="-1076442002" duration="270" />
  </person>
  <person id="person_754" depart="20" departLane="random" departSpeed="1.00" color="1,0,0">
    <walk from="82694445#2" busStop="82694445#2" speed="1.5" />
    <stop busStop="82694445#2" duration="163" />
    <walk from="82694445#2" to="4637649" speed="1.5" />
  </person>
  <person id="person_57" depart="23" departLane="random" departSpeed="1.00" color="0,1,0">
    <walk from="4588647#0" busStop="4588647#0" speed="1.5" />
    <ride from="4588647#0" to="-303412427#3" lines="jeepney_0 jeepney_1 jeepney_2 jeepney_3 jeepney_4 jeepney_5 jeepney_6 jeepney_7 jeepney_8 jeepney_9 jeepney_10 modernjeepney_0 modernjeepney_1" />
    <walk edges="-303412427#3" speed="1.5" />
  </person>
  <person id="person_361" depart="23" departLane="random" departSpeed="1.00" color="0,1,0">
    <walk from="-1076442002" busStop="-1076442002" speed="1.5" />
    <ride from="-1076442002" to="4478182" lines="jeepney_0 jeepney_1 jeepney_2 jeepney_3 jeepney_4 jeepney_5 jeepney_6 jeepney_7 jeepney_8 jeepney_9 jeepney_10 modernjeepney_0 modernjeepney_1" />
    <walk edges="4478182" speed="1.5" />
  </person>
  <person id="person_599" depart="23" departLane="random" departSpeed="1.00" color="1,0,0">
    <walk from="82694445#2" busStop="82694445#2" speed="1.5" />
    <stop busStop="82694445#2" duration="118" />
    <walk from="82694445#2" to="4332731" speed="1.5" />
  </person>
  <person id="person_69" depart="25" departLane="random" departSpeed="1.00" color="1,0,1">
    <walk from="-303412427#6" busStop="-303412427#6" speed="1.5" />
    <stop busStop="-303412427#6" duration="483" />
  </person>
  <person id="person_152" depart="25" departLane="random" departSpeed="1.00" color="1,0,1">
    <walk from="16174062#0" busStop="16174062#0" speed="1.5" />
    <stop busStop="16174062#0" duration="32" />
  </person>
  <person id="person_360" depart="25" departLane="random" departSpeed="1.00" color="1,0,0">
    <walk from="-924607338" busStop="-924607338" speed="1.5" />
    <stop busStop="-924607338" duration="463" />
    <walk from="-924607338" to="-29377703#1" speed="1.5" />
  </person>
  <person id="person_77" depart="27" departLane="random" departSpeed="1.00" color="1,0,0">
    <walk from="924607337#3" busStop="924607337#3" speed="1.5" />
    <stop busStop="924607337#3" duration="367" />
    <walk from="924607337#3" to="369686026" speed="1.5" />
  </person>
  <person id="person_202" depart="29" departLane="random" departSpeed="1.00" color="1,0,1">
    <walk from="303412427#15" busStop="303412427#15" speed="1.5" />
    <stop busStop="303412427#15" duration="120" />
  </person>
  <person id="person_362" depart="29" departLane="random" departSpeed="1.00" color="0,1,0">
    <walk from="729164042#1" busStop="729164042#1" speed="1.5" />
    <ride from="729164042#1" to="4332734#0" lines="jeepney_0 jeepney_1 jeepney_2 jeepney_3 jeepney_4 jeepney_5 jeepney_6 jeepney_7 jeepney_8 jeepney_9 jeepney_10 modernjeepney_0 modernjeepney_1" />
    <walk edges="4332734#0" speed="1.5" />
  </person>
  <person id="person_254" depart="30" departLane="random" departSpeed="1.00" color="0,1,0">
    <walk from="706706674#0" busStop="706706674#0" speed="1.5" />
    <ride from="706706674#0" to="5019952#4" lines="jeepney_0 jeepney_1 jeepney_2 jeepney_3 jeepney_4 jeepney_5 jeepney_6 jeepney_7 jeepney_8 jeepney_9 jeepney_10 modernjeepney_0 modernjeepney_1" />
    <walk edges="5019952#4" speed="1.5" />
  </person>
  <person id="person_415" depart="30" departLane="random" departSpeed="1.00" color="0,1,0">
    <walk from="729164041#1" busStop="729164041#1" speed="1.5" />
    <ride from="729164041#1" to="-303412427#16" lines="jeepney_0 jeepney_1 jeepney_2 jeepney_3 jeepney_4 jeepney_5 jeepney_6 jeepney_7 jeepney_8 jeepney_9 jeepney_10 modernjeepney_0 modernjeepney_1" />
    <walk edges="-303412427#16" speed="1.5" />
  </person>
  <person id="person_645" depart="31" departLane="random" departSpeed="1.00" color="1,0,1">
    <walk from="-303412427#2" busStop="-303412427#2" speed="1.5" />
    <stop busStop="-303412427#2" duration="590" />
  </person>
  <person id="person_679" depart="31" departLane="random" departSpeed="1.00" color="1,0,1">
    <walk from="4258656#2" busStop="4258656#2" speed="1.5" />
    <stop busStop="4258656#2" duration="99" />
  </person>
  <person id="person_691" depart="31" departLane="random" departSpeed="1.00" color="0,1,0">
    <walk from="303412427#3" busStop="303412427#3" speed="1.5" />
    <ride from="303412427#3" to="4588647#5" lines="jeepney_0 jeepney_1 jeepney_2 jeepney_3 jeepney_4 jeepney_5 jeepney_6 jeepney_7 jeepney_8 jeepney_9 jeepney_10 modernjeepney_0 modernjeepney_1" />
    <walk edges="4588647#5" speed="1.5" />
  </person>
  <person id="person_273" depart="32" departLane="random" departSpeed="1.00" color="1,0,0">
    <walk from="119883577#7" busStop="119883577#7" speed="1.5" />
    <stop busStop="119883577#7" duration="493" />
    <walk from="119883577#7" to="940627086" speed="1.5" />
  </person>
  <person id="person_300" depart="33" departLane="random" departSpeed="1.00" color="1,0,1">
    <walk from="303412427#9" busStop="303412427#9" speed="1.5" />
    <stop busStop="303412427#9" duration="410" />
  </person>
  <person id="person_657" depart="33" departLane="random" departSpeed="1.00" color="1,0,1">
    <walk from="4637649" busStop="4637649" speed="1.5" />
    <stop busStop="4637649" duration="260" />
  </person>
  <person id="person_707" depart="33" departLane="random" departSpeed="1.00" color="1,0,0">
    <walk from="-924607338" busStop="-924607338" speed="1.5" />
    <stop busStop="-924607338" duration="93" />
    <walk from="-924607338" to="-303412427#8" speed="1.5" />
  </person>
  <person id="person_568" depart="34" departLane="random" departSpeed="1.00" color="1,0,1">
    <walk from="136822587#0" busStop="136822587#0" speed="1.5" />
    <stop busStop="136822587#0" duration="64" />
  </person>
  <person id="person_800" depart="34" departLane="random" departSpeed="1.00" color="0,1,0">
    <walk from="820063582#1" busStop="820063582#1" speed="1.5" />
    <ride from="820063582#1" to="-303412427#12" lines="jeepney_0 jeepney_1 jeepney_2 jeepney_3 jeepney_4 jeepney_5 jeepney_6 jeepney_7 jeepney_8 jeepney_9 jeepney_10 modernjeepney_0 modernjeepney_1" />
    <walk edges="-303412427#12" speed="1.5" />
  </person>
  <person id="person_399" depart="35" departLane="random" departSpeed="1.00" color="0,1,0">
    <walk from="16174062#2" busStop="16174062#2" speed="1.5" />
    <ride from="16174062#2" to="-303412427#6" lines="jeepney_0 jeepney_1 jeepney_2 jeepney_3 jeepney_4 jeepney_5 jeepney_6 jeepney_7 jeepney_8 jeepney_9 jeepney_10 modernjeepney_0 modernjeepney_1" />
    <walk edges="-303412427#6" speed="1.5" />
  </person>
  <person id="person_430" depart="35" departLane="random" departSpeed="1.00" color="0,1,0">
    <walk from="161754854#2" busStop="161754854#2" speed="1.5" />
    <ride from="161754854#2" to="54338767#1" lines="jeepney_0 jeepney_1 jeepney_2 jeepney_3 jeepney_4 jeepney_5 jeepney_6 jeepney_7 jeepney_8 jeepney_9 jeepney_10 modernjeepney_0 modernjeepney_1" />
    <walk edges="54338767#1" speed="1.5" />
  </person>
  <person id="person_566" depart="35" departLane="random" departSpeed="1.00" color="1,0,1">
    <walk from="303412427#7" busStop="303412427#7" speed="1.5" />
    <stop busStop="303412427#7" duration="243" />
  </person>
  <person id="person_471" depart="37" departLane="random" departSpeed="1.00" color="1,0,0">
    <walk from="-4588647#0" busStop="-4588647#0" speed="1.5" />
    <stop busStop="-4588647#0" duration="78" />
    <walk from="-4588647#0" to="5019952#1" speed="1.5" />
  </person>
  <person id="person_700" depart="37" departLane="random" departSpeed="1.00" color="0,1,0">
    <walk from="-82694445#2" busStop="-82694445#2" speed="1.5" />
    <ride from="-82694445#2" to="-615478344#0" lines="jeepney_0 jeepney_1 jeepney_2 jeepney_3 jeepney_4 jeepney_5 jeepney_6 jeepney_7 jeepney_8 jeepney_9 jeepney_10 modernjeepney_0 modernjeepney_1" />
    <walk edges="-615478344#0" speed="1.5" />
  </person>
  <person id="person_776" depart="37" departLane="random" departSpeed="1.00" color="1,0,1">
    <walk from="940627086" busStop="940627086" speed="1.5" />
    <stop busStop="940627086" duration="129" />
  </person>
  <person id="person_178" depart="39" departLane="random" departSpeed="1.00" color="0,1,0">
    <walk from="924607337#2" busStop="924607337#2" speed="1.5" />
    <ride from="924607337#2" to="-575729108#3" lines="jeepney_0 jeepney_1 jeepney_2 jeepney_3 jeepney_4 jeepney_5 jeepney_6 jeepney_7 jeepney_8 jeepney_9 jeepney_10 modernjeepney_0 modernjeepney_1" />
    <walk edges="-575729108#3" speed="1.5" />
  </person>
  <person id="person_538" depart="39" departLane="random" departSpeed="1.00" color="1,0,0">
    <walk from="820063578#0" busStop="820063578#0" speed="1.5" />
    <stop busStop="820063578#0" duration="493" />
    <walk from="820063578#0" to="940627086" speed="1.5" />
  </person>
  <person id="person_585" depart="39" departLane="random" departSpeed="1.00" color="0,1,0">
    <walk from="-4588647#0" busStop="-4588647#0" speed="1.5" />
    <ride from="-4588647#0" to="-694268909#0" lines="jeepney_0 jeepney_1 jeepney_2 jeepney_3 jeepney_4 jeepney_5 jeepney_6 jeepney_7 jeepney_8 jeepney_9 jeepney_10 modernjeepney_0 modernjeepney_1" />
    <walk edges="-694268909#0" speed="1.5" />
  </person>
  <person id="person_423" depart="40" departLane="random" departSpeed="1.00" color="1,0,0">
    <walk from="303412427#5" busStop="303412427#5" speed="1.5" />
    <stop busStop="303412427#5" duration="158" />
    <walk from="303412427#5" to="-4588647#0" speed="1.5" />
  </person>
  <person id="person_63" depart="41" departLane="random" departSpeed="1.00" color="0,1,0">
    <walk from="136822575" busStop="136822575" speed="1.5" />
    <ride from="136822575" to="-303412427#7" lines="jeepney_0 jeepney_1 jeepney_2 jeepney_3 jeepney_4 jeepney_5 jeepney_6 jeepney_7 jeepney_8 jeepney_9 jeepney_10 modernjeepney_0 modernjeepney_1" />
    <walk edges="-303412427#7" speed="1.5" />
  </person>
  <person id="person_417" depart="41" departLane="random" departSpeed="1.00" color="0,1,0">
    <walk from="-303412427#14" busStop="-303412427#14" speed="1.5" />
    <ride from="-303412427#14" to="-303412427#9" lines="jeepney_0 jeepney_1 jeepney_2 jeepney_3 jeepney_4 jeepney_5 jeepney_6 jeepney_7 jeepney_8 jeepney_9 jeepney_10 modernjeepney_0 modernjeepney_1" />
    <walk edges="-303412427#9" speed="1.5" />
  </person>
  <person id="person_440" depart="41" departLane="random" departSpeed="1.00" color="0,1,0">
    <walk from="4243614#1" busStop="4243614#1" speed="1.5" />
    <ride from="4243614#1" to="575729108#1" lines="jeepney_0 jeepney_1 jeepney_2 jeepney_3 jeepney_4 jeepney_5 jeepney_6 jeepney_7 jeepney_8 jeepney_9 jeepney_10 modernjeepney_0 modernjeepney_1" />
    <walk edges="575729108#1" speed="1.5" />
  </person>
  <person id="person_678" depart="42" departLane="random" departSpeed="1.00" color="1,0,1">
    <walk from="615478345" busStop="615478345" speed="1.5" />
    <stop busStop="615478345" duration="359" />
  </person>
  <person id="person_685" depart="43" departLane="random" departSpeed="1.00" color="1,0,0">
    <walk from="-1176045777" busStop="-1176045777" speed="1.5" />
    <stop busStop="-1176045777" duration="136" />
    <walk from="-1176045777" to="-303412427#2" speed="1.5" />
  </person>
  <person id="person_17" depart="44" departLane="random" departSpeed="1.00" color="1,0,0">
    <walk from="107396681#0" busStop="107396681#0" speed="1.5" />
    <stop busStop="107396681#0" duration="344" />
    <walk from="107396681#0" to="-303412427#10" speed="1.5" />
  </person>
  <person id="person_40" depart="44" departLane="random" departSpeed="1.00" color="1,0,1">
    <walk from="924607337#2" busStop="924607337#2" speed="1.5" />
    <stop busStop="924607337#2" duration="299" />
  </person>
  <person id="person_377" depart="44" departLane="random" departSpeed="1.00" color="1,0,0">
    <walk from="615478345" busStop="615478345" speed="1.5" />
    <stop busStop="615478345" duration="354" />
    <walk from="615478345" to="1112806233-AddedOnRampEdge" speed="1.5" />
  </person>
  <person id="person_484" depart="44" departLane="random" departSpeed="1.00" color="1,0,0">
    <walk from="136822587#3" busStop="136822587#3" speed="1.5" />
    <stop busStop="136822587#3" duration="404" />
    <walk from="136822587#3" to="154644778#0" speed="1.5" />
  </person>
  <person id="person_575" depart="45" departLane="random" departSpeed="1.00" color="0,1,0">
    <walk from="940627086" busStop="940627086" speed="1.5" />
    <ride from="940627086" to="-615478344#1" lines="jeepney_0 jeepney_1 jeepney_2 jeepney_3 jeepney_4 jeepney_5 jeepney_6 jeepney_7 jeepney_8 jeepney_9 jeepney_10 modernjeepney_0 modernjeepney_1" />
    <walk edges="-615478344#1" speed="1.5" />
  </person>
  <person id="person_241" depart="46" departLane="random" departSpeed="1.00" color="1,0,1">
    <walk from="704746731#2" busStop="704746731#2" speed="1.5" />
    <stop busStop="704746731#2" duration="255" />
  </person>
  <person id="person_340" depart="47" departLane="random" departSpeed="1.00" color="1,0,1">
    <walk from="4332734#6" busStop="4332734#6" speed="1.5" />
    <stop busStop="4332734#6" duration="90" />
  </person>
  <person id="person_131" depart="48" departLane="random" departSpeed="1.00" color="1,0,0">
    <walk from="303412427#6" busStop="303412427#6" speed="1.5" />
    <stop busStop="303412427#6" duration="598" />
    <walk from="303412427#6" to="107396681#4" speed="1.5" />
  </person>
  <person id="person_373" depart="48" departLane="random" departSpeed="1.00" color="1,0,0">
    <walk from="-303412427#15" busStop="-303412427#15" speed="1.5" />
    <stop busStop="-303412427#15" duration="39" />
    <walk from="-303412427#15" to="-303412427#10" speed="1.5" />
  </person>
  <person id="person_435" depart="49" departLane="random" departSpeed="1.00" color="0,1,0">
    <walk from="369686026" busStop="369686026" speed="1.5" />
    <ride from="369686026" to="-1176045777" lines="jeepney_0 jeepney_1 jeepney_2 jeepney_3 jeepney_4 jeepney_5 jeepney_6 jeepney_7 jeepney_8 jeepney_9 jeepney_10 modernjeepney_0 modernjeepney_1" />
    <walk edges="-1176045777" speed="1.5" />
  </person>
  <person id="person_243" depart="50" departLane="random" departSpeed="1.00" color="0,1,0">
    <walk from="82694458#0" busStop="82694458#0" speed="1.5" />
    <ride from="82694458#0" to="820063587#0" lines="jeepney_0 jeepney_1 jeepney_2 jeepney_3 jeepney_4 jeepney_5 jeepney_6 jeepney_7 jeepney_8 jeepney_9 jeepney_10 modernjeepney_0 modernjeepney_1" />
    <walk edges="820063587#0" speed="1.5" />
  </person>
  <person id="person_794" depart="50" departLane="random" departSpeed="1.00" color="1,0,0">
    <walk from="-29377703#2" busStop="-29377703#2" speed="1.5" />
    <stop busStop="-29377703#2" duration="167" />
    <walk from="-29377703#2" to="-29377703#1" speed="1.5" />
  </person>
  <person id="person_199" depart="51" departLane="random" departSpeed="1.00" color="1,0,1">
    <walk from="136822580#3" busStop="136822580#3" speed="1.5" />
    <stop busStop="136822580#3" duration="349" />
  </person>
  <person id="person_245" depart="51" departLane="random" departSpeed="1.00" color="1,0,0">
    <walk from="-4588647#0" busStop="-4588647#0" speed="1.5" />
    <stop busStop="-4588647#0" duration="192" />
    <walk from="-4588647#0" to="4258656#2" speed="1.5" />
  </person>
  <person id="person_476" depart="51" departLane="random" departSpeed="1.00" color="1,0,0">
    <walk from="-178615165" busStop="-178615165" speed="1.5" />
    <stop busStop="-178615165" duration="168" />
    <walk from="-178615165" to="176435844#5" speed="1.5" />
  </person>
  <person id="person_698" depart="51" departLane="random" departSpeed="1.00" color="1,0,1">
    <walk from="-1076442002" busStop="-1076442002" speed="1.5" />
    <stop busStop="-1076442002" duration="495" />
  </person>
  <person id="person_21" depart="52" departLane="random" departSpeed="1.00" color="1,0,0">
    <walk from="924607337#0" busStop="924607337#0" speed="1.5" />
    <stop busStop="924607337#0" duration="511" />
    <walk from="924607337#0" to="575729108#3" speed="1.5" />
  </person>
  <person id="person_31" depart="52" departLane="random" departSpeed="1.00" color="0,1,0">
    <walk from="303412427#17" busStop="303412427#17" speed="1.5" />
    <ride from="303412427#17" to="107396681#6" lines="jeepney_0 jeepney_1 jeepney_2 jeepney_3 jeepney_4 jeepney_5 jeepney_6 jeepney_7 jeepney_8 jeepney_9 jeepney_10 modernjeepney_0 modernjeepney_1" />
    <walk edges="107396681#6" speed="1.5" />
  </person>
  <person id="person_184" depart="52" departLane="random" departSpeed="1.00" color="0,1,0">
    <walk from="107396681#4" busStop="107396681#4" speed="1.5" />
    <ride from="107396681#4" to="107396681#5" lines="jeepney_0 jeepney_1 jeepney_2 jeepney_3 jeepney_4 jeepney_5 jeepney_6 jeepney_7 jeepney_8 jeepney_9 jeepney_10 modernjeepney_0 modernjeepney_1" />
    <walk edges="107396681#5" speed="1.5" />
  </person>
  <person id="person_249" depart="52" departLane="random" departSpeed="1.00" color="0,1,0">
    <walk from="704746733#0" busStop="704746733#0" speed="1.5" />
    <ride from="704746733#0" to="-303412427#17" lines="jeepney_0 jeepney_1 jeepney_2 jeepney_3 jeepney_4 jeepney_5 jeepney_6 jeepney_7 jeepney_8 jeepney_9 jeepney_10 modernjeepney_0 modernjeepney_1" />
    <walk edges="-303412427#17" speed="1.5" />
  </person>
  <person id="person_176" depart="53" departLane="random" departSpeed="1.00" color="1,0,0">
    <walk from="-615478345" busStop="-615478345" speed="1.5" />
    <stop busStop="-615478345" duration="357" />
    <walk from="-615478345" to="-924607337#1" speed="1.5" />
  </person>
  <person id="person_672" depart="54" departLane="random" departSpeed="1.00" color="1,0,1">
    <walk from="32981461" busStop="32981461" speed="1.5" />
    <stop busStop="32981461" duration="196" />
  </person>
  <person id="person_221" depart="56" departLane="random" departSpeed="1.00" color="1,0,1">
    <walk from="1148489399#2" busStop="1148489399#2" speed="1.5" />
    <stop busStop="1148489399#2" duration="392" />
  </person>