<?xml version="1.0" ?>
<routes>
  <person id="person_128" depart="1" departLane="random" departSpeed="1.00" color="0,1,0">
    <walk from="-575729108#3" busStop="-575729108#3" speed="1.5"/>
    <ride from="-575729108#3" to="1074607188"/>
    <walk edges="1074607188" speed="1.5"/>
  </person>
  <person id="person_608" depart="1" departLane="random" departSpeed="1.00" color="1,0,0">
    <walk from="310627474#2" busStop="310627474#2" speed="1.5"/>
    <stop busStop="310627474#2" duration="478"/>
    <walk from="310627474#2" to="-303412427#17" speed="1.5"/>
  </person>
  <person id="person_717" depart="1" departLane="random" departSpeed="1.00" color="0,1,0">
    <walk from="310627474#1" busStop="310627474#1" speed="1.5"/>
    <ride from="310627474#1" to="161754855#0"/>
    <walk edges="161754855#0" speed="1.5"/>
  </person>
  <person id="person_122" depart="3" departLane="random" departSpeed="1.00" color="1,0,0">
    <walk from="4332734#0" busStop="4332734#0" speed="1.5"/>
    <stop busStop="4332734#0" duration="496"/>
    <walk from="4332734#0" to="-615478344#1" speed="1.5"/>
  </person>
  <person id="person_586" depart="3" departLane="random" departSpeed="1.00" color="1,0,1">
    <walk from="4332731" busStop="4332731" speed="1.5"/>
    <stop busStop="4332731" duration="195"/>
  </person>
  <person id="person_173" depart="5" departLane="random" departSpeed="1.00" color="0,1,0">
    <walk from="820063582#1" busStop="820063582#1" speed="1.5"/>
    <ride from="820063582#1" to="4588647#3"/>
    <walk edges="4588647#3" speed="1.5"/>
  </person>
  <person id="person_306" depart="5" departLane="random" departSpeed="1.00" color="1,0,0">
    <walk from="4332734#7" busStop="4332734#7" speed="1.5"/>
    <stop busStop="4332734#7" duration="340"/>
    <walk from="4332734#7" to="-303412427#3" speed="1.5"/>
  </person>
  <person id="person_26" depart="6" departLane="random" departSpeed="1.00" color="0,1,0">
    <walk from="136822582" busStop="136822582" speed="1.5"/>
    <ride from="136822582" to="-368461882#1"/>
    <walk edges="-368461882#1" speed="1.5"/>
  </person>
  <person id="person_652" depart="7" departLane="random" departSpeed="1.00" color="1,0,1">
    <walk from="4258656#4" busStop="4258656#4" speed="1.5"/>
    <stop busStop="4258656#4" duration="199"/>
  </person>
  <person id="person_217" depart="9" departLane="random" departSpeed="1.00" color="1,0,1">
    <walk from="1174874705" busStop="1174874705" speed="1.5"/>
    <stop busStop="1174874705" duration="79"/>
  </person>
  <person id="person_610" depart="9" departLane="random" departSpeed="1.00" color="0,1,0">
    <walk from="820063578#1" busStop="820063578#1" speed="1.5"/>
    <ride from="820063578#1" to="-303412427#15"/>
    <walk edges="-303412427#15" speed="1.5"/>
  </person>
  <person id="person_817" depart="9" departLane="random" departSpeed="1.00" color="1,0,0">
    <walk from="136822587#1" busStop="136822587#1" speed="1.5"/>
    <stop busStop="136822587#1" duration="354"/>
    <walk from="136822587#1" to="48630242#3" speed="1.5"/>
  </person>
  <person id="person_648" depart="10" departLane="random" departSpeed="1.00" color="0,1,0">
    <walk from="685156794#0" busStop="685156794#0" speed="1.5"/>
    <ride from="685156794#0" to="757990562"/>
    <walk edges="757990562" speed="1.5"/>
  </person>
  <person id="person_954" depart="10" departLane="random" departSpeed="1.00" color="1,0,1">
    <walk from="-4588647#3" busStop="-4588647#3" speed="1.5"/>
    <stop busStop="-4588647#3" duration="219"/>
  </person>
  <person id="person_457" depart="11" departLane="random" departSpeed="1.00" color="0,1,0">
    <walk from="615478344#0" busStop="615478344#0" speed="1.5"/>
    <ride from="615478344#0" to="1174874705"/>
    <walk edges="1174874705" speed="1.5"/>
  </person>
  <person id="person_3" depart="12" departLane="random" departSpeed="1.00" color="1,0,0">
    <walk from="310627474#7" busStop="310627474#7" speed="1.5"/>
    <stop busStop="310627474#7" duration="437"/>
    <walk from="310627474#7" to="-303412427#12" speed="1.5"/>
  </person>
  <person id="person_232" depart="12" departLane="random" departSpeed="1.00" color="1,0,1">
    <walk from="4588647#0" busStop="4588647#0" speed="1.5"/>
    <stop busStop="4588647#0" duration="301"/>
  </person>
  <person id="person_956" depart="12" departLane="random" departSpeed="1.00" color="1,0,0">
    <walk from="303412427#15" busStop="303412427#15" speed="1.5"/>
    <stop busStop="303412427#15" duration="214"/>
    <walk from="303412427#15" to="1018627464" speed="1.5"/>
  </person>
  <person id="person_249" depart="13" departLane="random" departSpeed="1.00" color="1,0,0">
    <walk from="-303412427#5" busStop="-303412427#5" speed="1.5"/>
    <stop busStop="-303412427#5" duration="207"/>
    <walk from="-303412427#5" to="-303412427#1" speed="1.5"/>
  </person>
  <person id="person_137" depart="14" departLane="random" departSpeed="1.00" color="0,1,0">
    <walk from="161754854#2" busStop="161754854#2" speed="1.5"/>
    <ride from="161754854#2" to="1112806233"/>
    <walk edges="1112806233" speed="1.5"/>
  </person>
  <person id="person_502" depart="14" departLane="random" departSpeed="1.00" color="1,0,0">
    <walk from="-4332734#2" busStop="-4332734#2" speed="1.5"/>
    <stop busStop="-4332734#2" duration="589"/>
    <walk from="-4332734#2" to="161754854#1" speed="1.5"/>
  </person>
  <person id="person_587" depart="14" departLane="random" departSpeed="1.00" color="1,0,0">
    <walk from="107396681#4" busStop="107396681#4" speed="1.5"/>
    <stop busStop="107396681#4" duration="380"/>
    <walk from="107396681#4" to="-303412427#6" speed="1.5"/>
  </person>
  <person id="person_242" depart="15" departLane="random" departSpeed="1.00" color="1,0,0">
    <walk from="805198994#1" busStop="805198994#1" speed="1.5"/>
    <stop busStop="805198994#1" duration="411"/>
    <walk from="805198994#1" to="-303412427#16" speed="1.5"/>
  </person>
  <person id="person_260" depart="15" departLane="random" departSpeed="1.00" color="1,0,0">
    <walk from="820063587#0" busStop="820063587#0" speed="1.5"/>
    <stop busStop="820063587#0" duration="597"/>
    <walk from="820063587#0" to="4258656#1" speed="1.5"/>
  </person>
  <person id="person_613" depart="16" departLane="random" departSpeed="1.00" color="1,0,1">
    <walk from="924607337#4" busStop="924607337#4" speed="1.5"/>
    <stop busStop="924607337#4" duration="559"/>
  </person>
  <person id="person_32" depart="17" departLane="random" departSpeed="1.00" color="0,1,0">
    <walk from="329609972#0" busStop="329609972#0" speed="1.5"/>
    <ride from="329609972#0" to="575729108#1"/>
    <walk edges="575729108#1" speed="1.5"/>
  </person>
  <person id="person_239" depart="17" departLane="random" departSpeed="1.00" color="1,0,1">
    <walk from="161754854#1" busStop="161754854#1" speed="1.5"/>
    <stop busStop="161754854#1" duration="87"/>
  </person>
  <person id="person_412" depart="17" departLane="random" departSpeed="1.00" color="1,0,0">
    <walk from="4258656#4" busStop="4258656#4" speed="1.5"/>
    <stop busStop="4258656#4" duration="70"/>
    <walk from="4258656#4" to="-29377703#1" speed="1.5"/>
  </person>
  <person id="person_463" depart="17" departLane="random" departSpeed="1.00" color="1,0,0">
    <walk from="369686026" busStop="369686026" speed="1.5"/>
    <stop busStop="369686026" duration="477"/>
    <walk from="369686026" to="805198994#1" speed="1.5"/>
  </person>
  <person id="person_914" depart="17" departLane="random" departSpeed="1.00" color="1,0,1">
    <walk from="729164042#1" busStop="729164042#1" speed="1.5"/>
    <stop busStop="729164042#1" duration="579"/>
  </person>
  <person id="person_15" depart="18" departLane="random" departSpeed="1.00" color="0,1,0">
    <walk from="-575729108#1" busStop="-575729108#1" speed="1.5"/>
    <ride from="-575729108#1" to="136822587#1"/>
    <walk edges="136822587#1" speed="1.5"/>
  </person>
  <person id="person_753" depart="18" departLane="random" departSpeed="1.00" color="0,1,0">
    <walk from="575729108#3" busStop="575729108#3" speed="1.5"/>
    <ride from="575729108#3" to="-82694445#2"/>
    <walk edges="-82694445#2" speed="1.5"/>
  </person>
  <person id="person_730" depart="19" departLane="random" departSpeed="1.00" color="0,1,0">
    <walk from="161754854#2" busStop="161754854#2" speed="1.5"/>
    <ride from="161754854#2" to="-303412427#13"/>
    <walk edges="-303412427#13" speed="1.5"/>
  </person>
  <person id="person_83" depart="20" departLane="random" departSpeed="1.00" color="0,1,0">
    <walk from="-615478344#0" busStop="-615478344#0" speed="1.5"/>
    <ride from="-615478344#0" to="-303412427#10"/>
    <walk edges="-303412427#10" speed="1.5"/>
  </person>
  <person id="person_528" depart="20" departLane="random" departSpeed="1.00" color="1,0,1">
    <walk from="820063578#1" busStop="820063578#1" speed="1.5"/>
    <stop busStop="820063578#1" duration="249"/>
  </person>
  <person id="person_590" depart="20" departLane="random" departSpeed="1.00" color="0,1,0">
    <walk from="161754855#1" busStop="161754855#1" speed="1.5"/>
    <ride from="161754855#1" to="-303412427#8"/>
    <walk edges="-303412427#8" speed="1.5"/>
  </person>
  <person id="person_61" depart="21" departLane="random" departSpeed="1.00" color="1,0,1">
    <walk from="-303412427#7" busStop="-303412427#7" speed="1.5"/>
    <stop busStop="-303412427#7" duration="223"/>
  </person>
  <person id="person_351" depart="21" departLane="random" departSpeed="1.00" color="0,1,0">
    <walk from="-48630242#3" busStop="-48630242#3" speed="1.5"/>
    <ride from="-48630242#3" to="-29377703#4"/>
    <walk edges="-29377703#4" speed="1.5"/>
  </person>
  <person id="person_1" depart="22" departLane="random" departSpeed="1.00" color="1,0,0">
    <walk from="1174874706" busStop="1174874706" speed="1.5"/>
    <stop busStop="1174874706" duration="481"/>
    <walk from="1174874706" to="310627474#2" speed="1.5"/>
  </person>
  <person id="person_341" depart="22" departLane="random" departSpeed="1.00" color="1,0,1">
    <walk from="121188638" busStop="121188638" speed="1.5"/>
    <stop busStop="121188638" duration="96"/>
  </person>
  <person id="person_556" depart="22" departLane="random" departSpeed="1.00" color="1,0,0">
    <walk from="-368461882#1" busStop="-368461882#1" speed="1.5"/>
    <stop busStop="-368461882#1" duration="111"/>
    <walk from="-368461882#1" to="-303412427#1" speed="1.5"/>
  </person>
  <person id="person_454" depart="23" departLane="random" departSpeed="1.00" color="0,1,0">
    <walk from="369686026" busStop="369686026" speed="1.5"/>
    <ride from="369686026" to="16174062#5"/>
    <walk edges="16174062#5" speed="1.5"/>
  </person>
  <person id="person_505" depart="23" departLane="random" departSpeed="1.00" color="1,0,1">
    <walk from="745183364#0" busStop="745183364#0" speed="1.5"/>
    <stop busStop="745183364#0" duration="578"/>
  </person>
  <person id="person_576" depart="23" departLane="random" departSpeed="1.00" color="1,0,0">
    <walk from="-924607337#2" busStop="-924607337#2" speed="1.5"/>
    <stop busStop="-924607337#2" duration="386"/>
    <walk from="-924607337#2" to="-303412427#15" speed="1.5"/>
  </person>
  <person id="person_437" depart="24" departLane="random" departSpeed="1.00" color="0,1,0">
    <walk from="136822574" busStop="136822574" speed="1.5"/>
    <ride from="136822574" to="-368461882#0"/>
    <walk edges="-368461882#0" speed="1.5"/>
  </person>
  <person id="person_499" depart="24" departLane="random" departSpeed="1.00" color="1,0,0">
    <walk from="-4332734#2" busStop="-4332734#2" speed="1.5"/>
    <stop busStop="-4332734#2" duration="226"/>
    <walk from="-4332734#2" to="107396681#6" speed="1.5"/>
  </person>
  <person id="person_19" depart="25" departLane="random" departSpeed="1.00" color="0,1,0">
    <walk from="154644778#0" busStop="154644778#0" speed="1.5"/>
    <ride from="154644778#0" to="-303412427#8"/>
    <walk edges="-303412427#8" speed="1.5"/>
  </person>
  <person id="person_273" depart="25" departLane="random" departSpeed="1.00" color="0,1,0">
    <walk from="4332734#4" busStop="4332734#4" speed="1.5"/>
    <ride from="4332734#4" to="-615456193#0"/>
    <walk edges="-615456193#0" speed="1.5"/>
  </person>
  <person id="person_712" depart="25" departLane="random" departSpeed="1.00" color="1,0,1">
    <walk from="704746731#2" busStop="704746731#2" speed="1.5"/>
    <stop busStop="704746731#2" duration="389"/>
  </person>
  <person id="person_511" depart="26" departLane="random" departSpeed="1.00" color="0,1,0">
    <walk from="4637649" busStop="4637649" speed="1.5"/>
    <ride from="4637649" to="4332734#2"/>
    <walk edges="4332734#2" speed="1.5"/>
  </person>
  <person id="person_769" depart="26" departLane="random" departSpeed="1.00" color="0,1,0">
    <walk from="1018627463" busStop="1018627463" speed="1.5"/>
    <ride from="1018627463" to="136822575"/>
    <walk edges="136822575" speed="1.5"/>
  </person>
  <person id="person_815" depart="26" departLane="random" departSpeed="1.00" color="0,1,0">
    <walk from="-4478182" busStop="-4478182" speed="1.5"/>
    <ride from="-4478182" to="1174874705"/>
    <walk edges="1174874705" speed="1.5"/>
  </person>
  <person id="person_746" depart="28" departLane="random" departSpeed="1.00" color="0,1,0">
    <walk from="-303412427#6" busStop="-303412427#6" speed="1.5"/>
    <ride from="-303412427#6" to="-303412427#3"/>
    <walk edges="-303412427#3" speed="1.5"/>
  </person>
  <person id="person_791" depart="28" departLane="random" departSpeed="1.00" color="0,1,0">
    <walk from="-303412427#5" busStop="-303412427#5" speed="1.5"/>
    <ride from="-303412427#5" to="-303412427#3"/>
    <walk edges="-303412427#3" speed="1.5"/>
  </person>
  <person id="person_661" depart="30" departLane="random" departSpeed="1.00" color="0,1,0">
    <walk from="4588647#0" busStop="4588647#0" speed="1.5"/>
    <ride from="4588647#0" to="-924607337#0"/>
    <walk edges="-924607337#0" speed="1.5"/>
  </person>
  <person id="person_330" depart="31" departLane="random" departSpeed="1.00" color="0,1,0">
    <walk from="126342421" busStop="126342421" speed="1.5"/>
    <ride from="126342421" to="-303412427#8"/>
    <walk edges="-303412427#8" speed="1.5"/>
  </person>
  <person id="person_89" depart="32" departLane="random" departSpeed="1.00" color="0,1,0">
    <walk from="615478344#1" busStop="615478344#1" speed="1.5"/>
    <ride from="615478344#1" to="-303412427#3"/>
    <walk edges="-303412427#3" speed="1.5"/>
  </person>
  <person id="person_653" depart="36" departLane="random" departSpeed="1.00" color="0,1,0">
    <walk from="176435844#0" busStop="176435844#0" speed="1.5"/>
    <ride from="176435844#0" to="-303412427#8"/>
    <walk edges="-303412427#8" speed="1.5"/>
  </person>
  <person id="person_690" depart="36" departLane="random" departSpeed="1.00" color="0,1,0">
    <walk from="4588647#0" busStop="4588647#0" speed="1.5"/>
    <ride from="4588647#0" to="-924607338"/>
    <walk edges="-924607338" speed="1.5"/>
  </person>
  <person id="person_378" depart="37" departLane="random" departSpeed="1.00" color="1,0,1">
    <walk from="4258656#4" busStop="4258656#4" speed="1.5"/>
    <stop busStop="4258656#4" duration="30"/>
  </person>
  <person id="person_458" depart="37" departLane="random" departSpeed="1.00" color="0,1,0">
    <walk from="54338767#2" busStop="54338767#2" speed="1.5"/>
    <ride from="54338767#2" to="-615478345"/>
    <walk edges="-615478345" speed="1.5"/>
  </person>
  <person id="person_392" depart="38" departLane="random" departSpeed="1.00" color="0,1,0">
    <walk from="-303412427#7" busStop="-303412427#7" speed="1.5"/>
    <ride from="-303412427#7" to="-29377703#2"/>
    <walk edges="-29377703#2" speed="1.5"/>
  </person>
  <person id="person_605" depart="38" departLane="random" departSpeed="1.00" color="0,1,0">
    <walk from="1176045778" busStop="1176045778" speed="1.5"/>
    <ride from="1176045778" to="-615456193#1"/>
    <walk edges="-615456193#1" speed="1.5"/>
  </person>
  <person id="person_681" depart="38" departLane="random" departSpeed="1.00" color="1,0,1">
    <walk from="4332734#7" busStop="4332734#7" speed="1.5"/>
    <stop busStop="4332734#7" duration="230"/>
  </person>
  <person id="person_908" depart="39" departLane="random" departSpeed="1.00" color="1,0,1">
    <walk from="303412427#13" busStop="303412427#13" speed="1.5"/>
    <stop busStop="303412427#13" duration="554"/>
  </person>
  <person id="person_664" depart="40" departLane="random" departSpeed="1.00" color="1,0,0">
    <walk from="4258656#2" busStop="4258656#2" speed="1.5"/>
    <stop busStop="4258656#2" duration="465"/>
    <walk from="4258656#2" to="-82694445#2" speed="1.5"/>
  </person>
  <person id="person_982" depart="40" departLane="random" departSpeed="1.00" color="1,0,1">
    <walk from="176435850" busStop="176435850" speed="1.5"/>
    <stop busStop="176435850" duration="114"/>
  </person>
  <person id="person_396" depart="41" departLane="random" departSpeed="1.00" color="0,1,0">
    <walk from="4258656#4" busStop="4258656#4" speed="1.5"/>
    <ride from="4258656#4" to="-303412427#8"/>
    <walk edges="-303412427#8" speed="1.5"/>
  </person>
  <person id="person_474" depart="41" departLane="random" departSpeed="1.00" color="1,0,1">
    <walk from="820063579#0" busStop="820063579#0" speed="1.5"/>
    <stop busStop="820063579#0" duration="549"/>
  </person>
  <person id="person_763" depart="41" departLane="random" departSpeed="1.00" color="0,1,0">
    <walk from="136822587#3" busStop="136822587#3" speed="1.5"/>
    <ride from="136822587#3" to="-615478344#1"/>
    <walk edges="-615478344#1" speed="1.5"/>
  </person>
  <person id="person_971" depart="41" departLane="random" departSpeed="1.00" color="1,0,1">
    <walk from="694268909#1" busStop="694268909#1" speed="1.5"/>
    <stop busStop="694268909#1" duration="180"/>
  </person>
  <person id="person_393" depart="42" departLane="random" departSpeed="1.00" color="1,0,1">
    <walk from="303412427#2" busStop="303412427#2" speed="1.5"/>
    <stop busStop="303412427#2" duration="572"/>
  </person>
  <person id="person_665" depart="42" departLane="random" departSpeed="1.00" color="1,0,0">
    <walk from="4478182" busStop="4478182" speed="1.5"/>
    <stop busStop="4478182" duration="63"/>
    <walk from="4478182" to="575729108#3" speed="1.5"/>
  </person>
  <person id="person_792" depart="42" departLane="random" departSpeed="1.00" color="1,0,1">
    <walk from="1072039865#1" busStop="1072039865#1" speed="1.5"/>
    <stop busStop="1072039865#1" duration="325"/>
  </person>
  <person id="person_848" depart="42" departLane="random" departSpeed="1.00" color="1,0,0">
    <walk from="4243614#1" busStop="4243614#1" speed="1.5"/>
    <stop busStop="4243614#1" duration="307"/>
    <walk from="4243614#1" to="575729108#3" speed="1.5"/>
  </person>
  <person id="person_77" depart="44" departLane="random" departSpeed="1.00" color="1,0,1">
    <walk from="-303412427#17" busStop="-303412427#17" speed="1.5"/>
    <stop busStop="-303412427#17" duration="65"/>
  </person>
  <person id="person_174" depart="44" departLane="random" departSpeed="1.00" color="0,1,0">
    <walk from="161754855#1" busStop="161754855#1" speed="1.5"/>
    <ride from="161754855#1" to="-923261416"/>
    <walk edges="-923261416" speed="1.5"/>
  </person>
  <person id="person_911" depart="45" departLane="random" departSpeed="1.00" color="0,1,0">
    <walk from="119883577#7" busStop="119883577#7" speed="1.5"/>
    <ride from="119883577#7" to="729164041#0"/>
    <walk edges="729164041#0" speed="1.5"/>
  </person>
  <person id="person_895" depart="46" departLane="random" departSpeed="1.00" color="0,1,0">
    <walk from="1174874706" busStop="1174874706" speed="1.5"/>
    <ride from="1174874706" to="-82694445#2"/>
    <walk edges="-82694445#2" speed="1.5"/>
  </person>
  <person id="person_160" depart="47" departLane="random" departSpeed="1.00" color="0,1,0">
    <walk from="-4332734#7" busStop="-4332734#7" speed="1.5"/>
    <ride from="-4332734#7" to="685156794#1"/>
    <walk edges="685156794#1" speed="1.5"/>
  </person>
  <person id="person_252" depart="47" departLane="random" departSpeed="1.00" color="1,0,0">
    <walk from="119883577#1" busStop="119883577#1" speed="1.5"/>
    <stop busStop="119883577#1" duration="462"/>
    <walk from="119883577#1" to="136822587#1" speed="1.5"/>
  </person>
  <person id="person_490" depart="47" departLane="random" departSpeed="1.00" color="0,1,0">
    <walk from="704746733#0" busStop="704746733#0" speed="1.5"/>
    <ride from="704746733#0" to="-1176045777"/>
    <walk edges="-1176045777" speed="1.5"/>
  </person>
  <person id="person_588" depart="47" departLane="random" departSpeed="1.00" color="1,0,1">
    <walk from="924607337#4" busStop="924607337#4" speed="1.5"/>
    <stop busStop="924607337#4" duration="390"/>
  </person>
  <person id="person_344" depart="48" departLane="random" departSpeed="1.00" color="1,0,1">
    <walk from="924607337#2" busStop="924607337#2" speed="1.5"/>
    <stop busStop="924607337#2" duration="286"/>
  </person>
  <person id="person_592" depart="48" departLane="random" departSpeed="1.00" color="1,0,0">
    <walk from="303412427#15" busStop="303412427#15" speed="1.5"/>
    <stop busStop="303412427#15" duration="371"/>
    <walk from="303412427#15" to="16174062#0" speed="1.5"/>
  </person>
  <person id="person_924" depart="48" departLane="random" departSpeed="1.00" color="1,0,1">
    <walk from="685156794#1" busStop="685156794#1" speed="1.5"/>
    <stop busStop="685156794#1" duration="48"/>
  </person>
  <person id="person_699" depart="49" departLane="random" departSpeed="1.00" color="1,0,1">
    <walk from="4478182" busStop="4478182" speed="1.5"/>
    <stop busStop="4478182" duration="131"/>
  </person>
  <person id="person_86" depart="50" departLane="random" departSpeed="1.00" color="0,1,0">
    <walk from="5019952#2" busStop="5019952#2" speed="1.5"/>
    <ride from="5019952#2" to="-82694445#1"/>
    <walk edges="-82694445#1" speed="1.5"/>
  </person>
  <person id="person_154" depart="51" departLane="random" departSpeed="1.00" color="1,0,0">
    <walk from="-48630242#3" busStop="-48630242#3" speed="1.5"/>
    <stop busStop="-48630242#3" duration="249"/>
    <walk from="-48630242#3" to="820063579#0" speed="1.5"/>
  </person>
  <person id="person_201" depart="51" departLane="random" departSpeed="1.00" color="0,1,0">
    <walk from="136822580#1" busStop="136822580#1" speed="1.5"/>
    <ride from="136822580#1" to="805198994#1"/>
    <walk edges="805198994#1" speed="1.5"/>
  </person>
  <person id="person_530" depart="51" departLane="random" departSpeed="1.00" color="1,0,1">
    <walk from="-615478345" busStop="-615478345" speed="1.5"/>
    <stop busStop="-615478345" duration="86"/>
  </person>
  <person id="person_998" depart="51" departLane="random" departSpeed="1.00" color="0,1,0">
    <walk from="4258656#2" busStop="4258656#2" speed="1.5"/>
    <ride from="4258656#2" to="940627086"/>
    <walk edges="940627086" speed="1.5"/>
  </person>
  <person id="person_305" depart="52" departLane="random" departSpeed="1.00" color="1,0,1">
    <walk from="-303412427#1" busStop="-303412427#1" speed="1.5"/>
    <stop busStop="-303412427#1" duration="481"/>
  </person>
  <person id="person_46" depart="53" departLane="random" departSpeed="1.00" color="1,0,0">
    <walk from="615456193#0" busStop="615456193#0" speed="1.5"/>
    <stop busStop="615456193#0" duration="148"/>
    <walk from="615456193#0" to="1074607188" speed="1.5"/>
  </person>
  <person id="person_155" depart="53" departLane="random" departSpeed="1.00" color="0,1,0">
    <walk from="-1176045777" busStop="-1176045777" speed="1.5"/>
    <ride from="-1176045777" to="154644778#1"/>
    <walk edges="154644778#1" speed="1.5"/>
  </person>
  <person id="person_399" depart="53" departLane="random" departSpeed="1.00" color="1,0,0">
    <walk from="706706674#0" busStop="706706674#0" speed="1.5"/>
    <stop busStop="706706674#0" duration="582"/>
    <walk from="706706674#0" to="-615456193#0" speed="1.5"/>
  </person>
  <person id="person_614" depart="53" departLane="random" departSpeed="1.00" color="0,1,0">
    <walk from="1018627464" busStop="1018627464" speed="1.5"/>
    <ride from="1018627464" to="-29377703#4"/>
    <walk edges="-29377703#4" speed="1.5"/>
  </person>
  <person id="person_770" depart="53" departLane="random" departSpeed="1.00" color="1,0,1">
    <walk from="704746731#0" busStop="704746731#0" speed="1.5"/>
    <stop busStop="704746731#0" duration="38"/>
  </person>
  <person id="person_780" depart="53" departLane="random" departSpeed="1.00" color="0,1,0">
    <walk from="303412427#16" busStop="303412427#16" speed="1.5"/>
    <ride from="303412427#16" to="136822571#3"/>
    <walk edges="136822571#3" speed="1.5"/>
  </person>
  <person id="person_904" depart="53" departLane="random" departSpeed="1.00" color="1,0,0">
    <walk from="820063579#0" busStop="820063579#0" speed="1.5"/>
    <stop busStop="820063579#0" duration="551"/>
    <walk from="820063579#0" to="-187486758#0" speed="1.5"/>
  </person>
  <person id="person_494" depart="54" departLane="random" departSpeed="1.00" color="1,0,1">
    <walk from="332624272" busStop="332624272" speed="1.5"/>
    <stop busStop="332624272" duration="480"/>
  </person>
  <person id="person_884" depart="54" departLane="random" departSpeed="1.00" color="1,0,1">
    <walk from="615456195" busStop="615456195" speed="1.5"/>
    <stop busStop="615456195" duration="97"/>
  </person>
  <person id="person_838" depart="55" departLane="random" departSpeed="1.00" color="1,0,0">
    <walk from="745183364#0" busStop="745183364#0" speed="1.5"/>
    <stop busStop="745183364#0" duration="299"/>
    <walk from="745183364#0" to="-303412427#8" speed="1.5"/>
  </person>
  <person id="person_624" depart="56" departLane="random" departSpeed="1.00" color="0,1,0">
    <walk from="126342421" busStop="126342421" speed="1.5"/>
    <ride from="126342421" to="136822587#3"/>
    <walk edges="136822587#3" speed="1.5"/>
  </person>
  <person id="person_6" depart="57" departLane="random" departSpeed="1.00" color="1,0,1">
    <walk from="-924607337#1" busStop="-924607337#1" speed="1.5"/>
    <stop busStop="-924607337#1" duration="219"/>
  </person>
  <person id="person_650" depart="57" departLane="random" departSpeed="1.00" color="1,0,0">
    <walk from="119883577#10" busStop="119883577#10" speed="1.5"/>
    <stop busStop="119883577#10" duration="82"/>
    <walk from="119883577#10" to="136822580#3" speed="1.5"/>
  </person>
  <person id="person_886" depart="57" departLane="random" departSpeed="1.00" color="1,0,0">
    <walk from="4086429" busStop="4086429" speed="1.5"/>
    <stop busStop="4086429" duration="584"/>
    <walk from="4086429" to="-82694458#0" speed="1.5"/>
  </person>
  <person id="person_959" depart="57" departLane="random" departSpeed="1.00" color="1,0,0">
    <walk from="-82694445#1" busStop="-82694445#1" speed="1.5"/>
    <stop busStop="-82694445#1" duration="228"/>
    <walk from="-82694445#1" to="-303412427#18" speed="1.5"/>
  </person>
  <person id="person_901" depart="60" departLane="random" departSpeed="1.00" color="0,1,0">
    <walk from="-48630242#1" busStop="-48630242#1" speed="1.5"/>
    <ride from="-48630242#1" to="-303412427#3"/>
    <walk edges="-303412427#3" speed="1.5"/>
  </person>
  <person id="person_649" depart="61" departLane="random" departSpeed="1.00" color="0,1,0">
    <walk from="-303412427#18" busStop="-303412427#18" speed="1.5"/>
    <ride from="-303412427#18" to="-303412427#9"/>
    <walk edges="-303412427#9" speed="1.5"/>
  </person>
  <person id="person_637" depart="62" departLane="random" departSpeed="1.00" color="1,0,1">
    <walk from="-575729555" busStop="-575729555" speed="1.5"/>
    <stop busStop="-575729555" duration="489"/>
  </person>
  <person id="person_261" depart="63" departLane="random" departSpeed="1.00" color="1,0,1">
    <walk from="-303412427#10" busStop="-303412427#10" speed="1.5"/>
    <stop busStop="-303412427#10" duration="149"/>
  </person>
  <person id="person_849" depart="64" departLane="random" departSpeed="1.00" color="1,0,0">
    <walk from="4258656#0" busStop="4258656#0" speed="1.5"/>
    <stop busStop="4258656#0" duration="443"/>
    <walk from="4258656#0" to="820063578#1" speed="1.5"/>
  </person>
  <person id="person_851" depart="64" departLane="random" departSpeed="1.00" color="1,0,1">
    <walk from="329609972#1" busStop="329609972#1" speed="1.5"/>
    <stop busStop="329609972#1" duration="228"/>
  </person>
  <person id="person_288" depart="65" departLane="random" departSpeed="1.00" color="1,0,0">
    <walk from="694268909#1" busStop="694268909#1" speed="1.5"/>
    <stop busStop="694268909#1" duration="571"/>
    <walk from="694268909#1" to="136822574" speed="1.5"/>
  </person>
  <person id="person_295" depart="65" departLane="random" departSpeed="1.00" color="0,1,0">
    <walk from="4637649" busStop="4637649" speed="1.5"/>
    <ride from="4637649" to="-924607337#3"/>
    <walk edges="-924607337#3" speed="1.5"/>
  </person>
  <person id="person_360" depart="65" departLane="random" departSpeed="1.00" color="0,1,0">
    <walk from="924607337#4" busStop="924607337#4" speed="1.5"/>
    <ride from="924607337#4" to="615456193#1"/>
    <walk edges="615456193#1" speed="1.5"/>
  </person>
  <person id="person_368" depart="67" departLane="random" departSpeed="1.00" color="1,0,0">
    <walk from="119883577#10" busStop="119883577#10" speed="1.5"/>
    <stop busStop="119883577#10" duration="276"/>
    <walk from="119883577#10" to="-82694445#1" speed="1.5"/>
  </person>
  <person id="person_492" depart="67" departLane="random" departSpeed="1.00" color="1,0,0">
    <walk from="917450545" busStop="917450545" speed="1.5"/>
    <stop busStop="917450545" duration="37"/>
    <walk from="917450545" to="-82694445#2" speed="1.5"/>
  </person>