<?xml version='1.0' encoding='utf-8'?>
<routes>
  <person id="person_159" depart="0" departLane="random" departSpeed="1.00" color="1,0,1">
    <walk from="4332734#6" busStop="4332734#6" speed="1.5" />
    <stop busStop="4332734#6" duration="470" />
  </person>
  <person id="person_500" depart="1" departLane="random" departSpeed="1.00" color="1,0,1">
    <walk from="136822575" busStop="136822575" speed="1.5" />
    <stop busStop="136822575" duration="322" />
  </person>
  <person id="person_512" depart="1" departLane="random" departSpeed="1.00" color="0,1,0">
    <walk from="1176045777" busStop="1176045777" speed="1.5" />
    <ride from="1176045777" to="757990561" lines="jeepney_0 jeepney_1 jeepney_2 jeepney_3 jeepney_4 jeepney_5 modernjeepney_0 modernjeepney_1 modernjeepney_2 modernjeepney_3 modernjeepney_4 modernjeepney_5" />
    <walk edges="757990561" speed="1.5" />
  </person>
  <person id="person_161" depart="2" departLane="random" departSpeed="1.00" color="1,0,1">
    <walk from="4588647#3" busStop="4588647#3" speed="1.5" />
    <stop busStop="4588647#3" duration="404" />
  </person>
  <person id="person_179" depart="3" departLane="random" departSpeed="1.00" color="0,1,0">
    <walk from="-368461882#1" busStop="-368461882#1" speed="1.5" />
    <ride from="-368461882#1" to="-924607337#4" lines="jeepney_0 jeepney_1 jeepney_2 jeepney_3 jeepney_4 jeepney_5 modernjeepney_0 modernjeepney_1 modernjeepney_2 modernjeepney_3 modernjeepney_4 modernjeepney_5" />
    <walk edges="-924607337#4" speed="1.5" />
  </person>
  <person id="person_307" depart="4" departLane="random" departSpeed="1.00" color="1,0,0">
    <walk from="820063587#0" busStop="820063587#0" speed="1.5" />
    <stop busStop="820063587#0" duration="259" />
    <walk from="820063587#0" to="-368461882#0" speed="1.5" />
  </person>
  <person id="person_268" depart="6" departLane="random" departSpeed="1.00" color="1,0,0">
    <walk from="924607338" busStop="924607338" speed="1.5" />
    <stop busStop="924607338" duration="163" />
    <walk from="924607338" to="136822571#3" speed="1.5" />
  </person>
  <person id="person_273" depart="6" departLane="random" departSpeed="1.00" color="1,0,0">
    <walk from="329609972#1" busStop="329609972#1" speed="1.5" />
    <stop busStop="329609972#1" duration="388" />
    <walk from="329609972#1" to="-303412427#3" speed="1.5" />
  </person>
  <person id="person_348" depart="6" departLane="random" departSpeed="1.00" color="1,0,1">
    <walk from="48630242#2" busStop="48630242#2" speed="1.5" />
    <stop busStop="48630242#2" duration="319" />
  </person>
  <person id="person_415" depart="6" departLane="random" departSpeed="1.00" color="1,0,1">
    <walk from="-4332734#0" busStop="-4332734#0" speed="1.5" />
    <stop busStop="-4332734#0" duration="507" />
  </person>
  <person id="person_170" depart="8" departLane="random" departSpeed="1.00" color="0,1,0">
    <walk from="82694445#2" busStop="82694445#2" speed="1.5" />
    <ride from="82694445#2" to="161754854#0" lines="jeepney_0 jeepney_1 jeepney_2 jeepney_3 jeepney_4 jeepney_5 modernjeepney_0 modernjeepney_1 modernjeepney_2 modernjeepney_3 modernjeepney_4 modernjeepney_5" />
    <walk edges="161754854#0" speed="1.5" />
  </person>
  <person id="person_414" depart="10" departLane="random" departSpeed="1.00" color="1,0,1">
    <walk from="107396681#7" busStop="107396681#7" speed="1.5" />
    <stop busStop="107396681#7" duration="338" />
  </person>
  <person id="person_173" depart="12" departLane="random" departSpeed="1.00" color="1,0,1">
    <walk from="-368461882#0" busStop="-368461882#0" speed="1.5" />
    <stop busStop="-368461882#0" duration="184" />
  </person>
  <person id="person_196" depart="12" departLane="random" departSpeed="1.00" color="0,1,0">
    <walk from="757990561" busStop="757990561" speed="1.5" />
    <ride from="757990561" to="4478182" lines="jeepney_0 jeepney_1 jeepney_2 jeepney_3 jeepney_4 jeepney_5 modernjeepney_0 modernjeepney_1 modernjeepney_2 modernjeepney_3 modernjeepney_4 modernjeepney_5" />
    <walk edges="4478182" speed="1.5" />
  </person>
  <person id="person_80" depart="13" departLane="random" departSpeed="1.00" color="1,0,1">
    <walk from="-694268909#0" busStop="-694268909#0" speed="1.5" />
    <stop busStop="-694268909#0" duration="536" />
  </person>
  <person id="person_518" depart="13" departLane="random" departSpeed="1.00" color="0,1,0">
    <walk from="-924607338" busStop="-924607338" speed="1.5" />
    <ride from="-924607338" to="-303412427#17" lines="jeepney_0 jeepney_1 jeepney_2 jeepney_3 jeepney_4 jeepney_5 modernjeepney_0 modernjeepney_1 modernjeepney_2 modernjeepney_3 modernjeepney_4 modernjeepney_5" />
    <walk edges="-303412427#17" speed="1.5" />
  </person>
  <person id="person_524" depart="14" departLane="random" departSpeed="1.00" color="1,0,1">
    <walk from="-1176045777" busStop="-1176045777" speed="1.5" />
    <stop busStop="-1176045777" duration="528" />
  </person>
  <person id="person_124" depart="15" departLane="random" departSpeed="1.00" color="0,1,0">
    <walk from="-924607338" busStop="-924607338" speed="1.5" />
    <ride from="-924607338" to="-303412427#15" lines="jeepney_0 jeepney_1 jeepney_2 jeepney_3 jeepney_4 jeepney_5 modernjeepney_0 modernjeepney_1 modernjeepney_2 modernjeepney_3 modernjeepney_4 modernjeepney_5" />
    <walk edges="-303412427#15" speed="1.5" />
  </person>
  <person id="person_469" depart="15" departLane="random" departSpeed="1.00" color="0,1,0">
    <walk from="615478344#1" busStop="615478344#1" speed="1.5" />
    <ride from="615478344#1" to="-4588647#3" lines="jeepney_0 jeepney_1 jeepney_2 jeepney_3 jeepney_4 jeepney_5 modernjeepney_0 modernjeepney_1 modernjeepney_2 modernjeepney_3 modernjeepney_4 modernjeepney_5" />
    <walk edges="-4588647#3" speed="1.5" />
  </person>
  <person id="person_103" depart="17" departLane="random" departSpeed="1.00" color="0,1,0">
    <walk from="1174874705" busStop="1174874705" speed="1.5" />
    <ride from="1174874705" to="-303412427#6" lines="jeepney_0 jeepney_1 jeepney_2 jeepney_3 jeepney_4 jeepney_5 modernjeepney_0 modernjeepney_1 modernjeepney_2 modernjeepney_3 modernjeepney_4 modernjeepney_5" />
    <walk edges="-303412427#6" speed="1.5" />
  </person>
  <person id="person_427" depart="17" departLane="random" departSpeed="1.00" color="1,0,0">
    <walk from="-187486758#0" busStop="-187486758#0" speed="1.5" />
    <stop busStop="-187486758#0" duration="227" />
    <walk from="-187486758#0" to="940612553" speed="1.5" />
  </person>
  <person id="person_8" depart="18" departLane="random" departSpeed="1.00" color="0,1,0">
    <walk from="-48630242#3" busStop="-48630242#3" speed="1.5" />
    <ride from="-48630242#3" to="16174062#2" lines="jeepney_0 jeepney_1 jeepney_2 jeepney_3 jeepney_4 jeepney_5 modernjeepney_0 modernjeepney_1 modernjeepney_2 modernjeepney_3 modernjeepney_4 modernjeepney_5" />
    <walk edges="16174062#2" speed="1.5" />
  </person>
  <person id="person_421" depart="18" departLane="random" departSpeed="1.00" color="1,0,0">
    <walk from="-615478345" busStop="-615478345" speed="1.5" />
    <stop busStop="-615478345" duration="448" />
    <walk from="-615478345" to="-303412427#7" speed="1.5" />
  </person>
  <person id="person_437" depart="18" departLane="random" departSpeed="1.00" color="1,0,0">
    <walk from="-615456193#2" busStop="-615456193#2" speed="1.5" />
    <stop busStop="-615456193#2" duration="484" />
    <walk from="-615456193#2" to="-29377703#4" speed="1.5" />
  </person>
  <person id="person_107" depart="19" departLane="random" departSpeed="1.00" color="0,1,0">
    <walk from="119883577#7" busStop="119883577#7" speed="1.5" />
    <ride from="119883577#7" to="54338767#1" lines="jeepney_0 jeepney_1 jeepney_2 jeepney_3 jeepney_4 jeepney_5 modernjeepney_0 modernjeepney_1 modernjeepney_2 modernjeepney_3 modernjeepney_4 modernjeepney_5" />
    <walk edges="54338767#1" speed="1.5" />
  </person>
  <person id="person_536" depart="20" departLane="random" departSpeed="1.00" color="0,1,0">
    <walk from="-615456193#2" busStop="-615456193#2" speed="1.5" />
    <ride from="-615456193#2" to="-303412427#3" lines="jeepney_0 jeepney_1 jeepney_2 jeepney_3 jeepney_4 jeepney_5 modernjeepney_0 modernjeepney_1 modernjeepney_2 modernjeepney_3 modernjeepney_4 modernjeepney_5" />
    <walk edges="-303412427#3" speed="1.5" />
  </person>
  <person id="person_195" depart="21" departLane="random" departSpeed="1.00" color="1,0,1">
    <walk from="-303412427#18" busStop="-303412427#18" speed="1.5" />
    <stop busStop="-303412427#18" duration="250" />
  </person>
  <person id="person_353" depart="22" departLane="random" departSpeed="1.00" color="0,1,0">
    <walk from="-1176045778" busStop="-1176045778" speed="1.5" />
    <ride from="-1176045778" to="154644778#1" lines="jeepney_0 jeepney_1 jeepney_2 jeepney_3 jeepney_4 jeepney_5 modernjeepney_0 modernjeepney_1 modernjeepney_2 modernjeepney_3 modernjeepney_4 modernjeepney_5" />
    <walk edges="154644778#1" speed="1.5" />
  </person>
  <person id="person_310" depart="23" departLane="random" departSpeed="1.00" color="0,1,0">
    <walk from="-615478345" busStop="-615478345" speed="1.5" />
    <ride from="-615478345" to="-303412427#9" lines="jeepney_0 jeepney_1 jeepney_2 jeepney_3 jeepney_4 jeepney_5 modernjeepney_0 modernjeepney_1 modernjeepney_2 modernjeepney_3 modernjeepney_4 modernjeepney_5" />
    <walk edges="-303412427#9" speed="1.5" />
  </person>
  <person id="person_324" depart="25" departLane="random" departSpeed="1.00" color="1,0,1">
    <walk from="-303412427#3" busStop="-303412427#3" speed="1.5" />
    <stop busStop="-303412427#3" duration="105" />
  </person>
  <person id="person_482" depart="25" departLane="random" departSpeed="1.00" color="1,0,0">
    <walk from="1148489399#1" busStop="1148489399#1" speed="1.5" />
    <stop busStop="1148489399#1" duration="454" />
    <walk from="1148489399#1" to="5019952#4" speed="1.5" />
  </person>
  <person id="person_75" depart="26" departLane="random" departSpeed="1.00" color="1,0,0">
    <walk from="940627086" busStop="940627086" speed="1.5" />
    <stop busStop="940627086" duration="266" />
    <walk from="940627086" to="-29377703#4" speed="1.5" />
  </person>
  <person id="person_380" depart="28" departLane="random" departSpeed="1.00" color="1,0,0">
    <walk from="685156794#0" busStop="685156794#0" speed="1.5" />
    <stop busStop="685156794#0" duration="282" />
    <walk from="685156794#0" to="310627474#7" speed="1.5" />
  </person>
  <person id="person_242" depart="29" departLane="random" departSpeed="1.00" color="0,1,0">
    <walk from="16174062#1" busStop="16174062#1" speed="1.5" />
    <ride from="16174062#1" to="136822587#1" lines="jeepney_0 jeepney_1 jeepney_2 jeepney_3 jeepney_4 jeepney_5 modernjeepney_0 modernjeepney_1 modernjeepney_2 modernjeepney_3 modernjeepney_4 modernjeepney_5" />
    <walk edges="136822587#1" speed="1.5" />
  </person>
  <person id="person_367" depart="30" departLane="random" departSpeed="1.00" color="1,0,0">
    <walk from="4258656#0" busStop="4258656#0" speed="1.5" />
    <stop busStop="4258656#0" duration="331" />
    <walk from="4258656#0" to="154644778#0" speed="1.5" />
  </person>
  <person id="person_458" depart="31" departLane="random" departSpeed="1.00" color="0,1,0">
    <walk from="615478344#1" busStop="615478344#1" speed="1.5" />
    <ride from="615478344#1" to="805198994#1" lines="jeepney_0 jeepney_1 jeepney_2 jeepney_3 jeepney_4 jeepney_5 modernjeepney_0 modernjeepney_1 modernjeepney_2 modernjeepney_3 modernjeepney_4 modernjeepney_5" />
    <walk edges="805198994#1" speed="1.5" />
  </person>
  <person id="person_509" depart="31" departLane="random" departSpeed="1.00" color="1,0,1">
    <walk from="-4332734#1" busStop="-4332734#1" speed="1.5" />
    <stop busStop="-4332734#1" duration="183" />
  </person>
  <person id="person_40" depart="33" departLane="random" departSpeed="1.00" color="0,1,0">
    <walk from="-924607337#1" busStop="-924607337#1" speed="1.5" />
    <ride from="-924607337#1" to="-29377703#1" lines="jeepney_0 jeepney_1 jeepney_2 jeepney_3 jeepney_4 jeepney_5 modernjeepney_0 modernjeepney_1 modernjeepney_2 modernjeepney_3 modernjeepney_4 modernjeepney_5" />
    <walk edges="-29377703#1" speed="1.5" />
  </person>
  <person id="person_36" depart="35" departLane="random" departSpeed="1.00" color="1,0,1">
    <walk from="29377703#2" busStop="29377703#2" speed="1.5" />
    <stop busStop="29377703#2" duration="263" />
  </person>
  <person id="person_104" depart="36" departLane="random" departSpeed="1.00" color="0,1,0">
    <walk from="-303412427#5" busStop="-303412427#5" speed="1.5" />
    <ride from="-303412427#5" to="-29377703#2" lines="jeepney_0 jeepney_1 jeepney_2 jeepney_3 jeepney_4 jeepney_5 modernjeepney_0 modernjeepney_1 modernjeepney_2 modernjeepney_3 modernjeepney_4 modernjeepney_5" />
    <walk edges="-29377703#2" speed="1.5" />
  </person>
  <person id="person_298" depart="36" departLane="random" departSpeed="1.00" color="1,0,1">
    <walk from="4588647#0" busStop="4588647#0" speed="1.5" />
    <stop busStop="4588647#0" duration="265" />
  </person>
  <person id="person_331" depart="36" departLane="random" departSpeed="1.00" color="0,1,0">
    <walk from="-178615165" busStop="-178615165" speed="1.5" />
    <ride from="-178615165" to="54338767#2" lines="jeepney_0 jeepney_1 jeepney_2 jeepney_3 jeepney_4 jeepney_5 modernjeepney_0 modernjeepney_1 modernjeepney_2 modernjeepney_3 modernjeepney_4 modernjeepney_5" />
    <walk edges="54338767#2" speed="1.5" />
  </person>
  <person id="person_27" depart="40" departLane="random" departSpeed="1.00" color="1,0,1">
    <walk from="820063582#0" busStop="820063582#0" speed="1.5" />
    <stop busStop="820063582#0" duration="367" />
  </person>
  <person id="person_49" depart="40" departLane="random" departSpeed="1.00" color="1,0,0">
    <walk from="-940627086" busStop="-940627086" speed="1.5" />
    <stop busStop="-940627086" duration="206" />
    <walk from="-940627086" to="4332734#4" speed="1.5" />
  </person>
  <person id="person_351" depart="40" departLane="random" departSpeed="1.00" color="0,1,0">
    <walk from="16174062#4" busStop="16174062#4" speed="1.5" />
    <ride from="16174062#4" to="1076442002" lines="jeepney_0 jeepney_1 jeepney_2 jeepney_3 jeepney_4 jeepney_5 modernjeepney_0 modernjeepney_1 modernjeepney_2 modernjeepney_3 modernjeepney_4 modernjeepney_5" />
    <walk edges="1076442002" speed="1.5" />
  </person>
  <person id="person_457" depart="40" departLane="random" departSpeed="1.00" color="1,0,0">
    <walk from="-4332734#6" busStop="-4332734#6" speed="1.5" />
    <stop busStop="-4332734#6" duration="148" />
    <walk from="-4332734#6" to="136822580#1" speed="1.5" />
  </person>
  <person id="person_164" depart="41" departLane="random" departSpeed="1.00" color="0,1,0">
    <walk from="745183364#1" busStop="745183364#1" speed="1.5" />
    <ride from="745183364#1" to="-615456193#2" lines="jeepney_0 jeepney_1 jeepney_2 jeepney_3 jeepney_4 jeepney_5 modernjeepney_0 modernjeepney_1 modernjeepney_2 modernjeepney_3 modernjeepney_4 modernjeepney_5" />
    <walk edges="-615456193#2" speed="1.5" />
  </person>
  <person id="person_379" depart="41" departLane="random" departSpeed="1.00" color="0,1,0">
    <walk from="704746731#2" busStop="704746731#2" speed="1.5" />
    <ride from="704746731#2" to="-303412427#9" lines="jeepney_0 jeepney_1 jeepney_2 jeepney_3 jeepney_4 jeepney_5 modernjeepney_0 modernjeepney_1 modernjeepney_2 modernjeepney_3 modernjeepney_4 modernjeepney_5" />
    <walk edges="-303412427#9" speed="1.5" />
  </person>
  <person id="person_236" depart="42" departLane="random" departSpeed="1.00" color="0,1,0">
    <walk from="119883577#5" busStop="119883577#5" speed="1.5" />
    <ride from="119883577#5" to="136822580#3" lines="jeepney_0 jeepney_1 jeepney_2 jeepney_3 jeepney_4 jeepney_5 modernjeepney_0 modernjeepney_1 modernjeepney_2 modernjeepney_3 modernjeepney_4 modernjeepney_5" />
    <walk edges="136822580#3" speed="1.5" />
  </person>
  <person id="person_206" depart="43" departLane="random" departSpeed="1.00" color="1,0,1">
    <walk from="1112806233" busStop="1112806233" speed="1.5" />
    <stop busStop="1112806233" duration="529" />
  </person>
  <person id="person_255" depart="43" departLane="random" departSpeed="1.00" color="1,0,1">
    <walk from="-924607338" busStop="-924607338" speed="1.5" />
    <stop busStop="-924607338" duration="80" />
  </person>
  <person id="person_336" depart="43" departLane="random" departSpeed="1.00" color="0,1,0">
    <walk from="4258656#0" busStop="4258656#0" speed="1.5" />
    <ride from="4258656#0" to="-615456193#2" lines="jeepney_0 jeepney_1 jeepney_2 jeepney_3 jeepney_4 jeepney_5 modernjeepney_0 modernjeepney_1 modernjeepney_2 modernjeepney_3 modernjeepney_4 modernjeepney_5" />
    <walk edges="-615456193#2" speed="1.5" />
  </person>
  <person id="person_523" depart="43" departLane="random" departSpeed="1.00" color="1,0,0">
    <walk from="136822575" busStop="136822575" speed="1.5" />
    <stop busStop="136822575" duration="97" />
    <walk from="136822575" to="-1176045778" speed="1.5" />
  </person>
  <person id="person_550" depart="43" departLane="random" departSpeed="1.00" color="0,1,0">
    <walk from="4086429" busStop="4086429" speed="1.5" />
    <ride from="4086429" to="-694268909#0" lines="jeepney_0 jeepney_1 jeepney_2 jeepney_3 jeepney_4 jeepney_5 modernjeepney_0 modernjeepney_1 modernjeepney_2 modernjeepney_3 modernjeepney_4 modernjeepney_5" />
    <walk edges="-694268909#0" speed="1.5" />
  </person>
  <person id="person_99" depart="44" departLane="random" departSpeed="1.00" color="0,1,0">
    <walk from="126342421" busStop="126342421" speed="1.5" />
    <ride from="126342421" to="32981461" lines="jeepney_0 jeepney_1 jeepney_2 jeepney_3 jeepney_4 jeepney_5 modernjeepney_0 modernjeepney_1 modernjeepney_2 modernjeepney_3 modernjeepney_4 modernjeepney_5" />
    <walk edges="32981461" speed="1.5" />
  </person>
  <person id="person_155" depart="44" departLane="random" departSpeed="1.00" color="0,1,0">
    <walk from="303412427#7" busStop="303412427#7" speed="1.5" />
    <ride from="303412427#7" to="-615456193#2" lines="jeepney_0 jeepney_1 jeepney_2 jeepney_3 jeepney_4 jeepney_5 modernjeepney_0 modernjeepney_1 modernjeepney_2 modernjeepney_3 modernjeepney_4 modernjeepney_5" />
    <walk edges="-615456193#2" speed="1.5" />
  </person>
  <person id="person_91" depart="45" departLane="random" departSpeed="1.00" color="1,0,0">
    <walk from="-575729108#2" busStop="-575729108#2" speed="1.5" />
    <stop busStop="-575729108#2" duration="99" />
    <walk from="-575729108#2" to="4588647#5" speed="1.5" />
  </person>
  <person id="person_128" depart="47" departLane="random" departSpeed="1.00" color="1,0,0">
    <walk from="303412427#6" busStop="303412427#6" speed="1.5" />
    <stop busStop="303412427#6" duration="217" />
    <walk from="303412427#6" to="-4588647#4" speed="1.5" />
  </person>
  <person id="person_526" depart="48" departLane="random" departSpeed="1.00" color="1,0,0">
    <walk from="54338767#2" busStop="54338767#2" speed="1.5" />
    <stop busStop="54338767#2" duration="578" />
    <walk from="54338767#2" to="575729108#1" speed="1.5" />
  </person>
  <person id="person_61" depart="49" departLane="random" departSpeed="1.00" color="1,0,0">
    <walk from="161754855#1" busStop="161754855#1" speed="1.5" />
    <stop busStop="161754855#1" duration="245" />
    <walk from="161754855#1" to="154644778#0" speed="1.5" />
  </person>
  <person id="person_532" depart="49" departLane="random" departSpeed="1.00" color="1,0,1">
    <walk from="107396681#5" busStop="107396681#5" speed="1.5" />
    <stop busStop="107396681#5" duration="39" />
  </person>
  <person id="person_30" depart="50" departLane="random" departSpeed="1.00" color="1,0,1">
    <walk from="136822575" busStop="136822575" speed="1.5" />
    <stop busStop="136822575" duration="591" />
  </person>
  <person id="person_510" depart="51" departLane="random" departSpeed="1.00" color="1,0,1">
    <walk from="154644778#1" busStop="154644778#1" speed="1.5" />
    <stop busStop="154644778#1" duration="565" />
  </person>
  <person id="person_59" depart="53" departLane="random" departSpeed="1.00" color="1,0,1">
    <walk from="176435850" busStop="176435850" speed="1.5" />
    <stop busStop="176435850" duration="199" />
  </person>
  <person id="person_77" depart="55" departLane="random" departSpeed="1.00" color="0,1,0">
    <walk from="-303412427#12" busStop="-303412427#12" speed="1.5" />
    <ride from="-303412427#12" to="-303412427#5" lines="jeepney_0 jeepney_1 jeepney_2 jeepney_3 jeepney_4 jeepney_5 modernjeepney_0 modernjeepney_1 modernjeepney_2 modernjeepney_3 modernjeepney_4 modernjeepney_5" />
    <walk edges="-303412427#5" speed="1.5" />
  </person>
  <person id="person_444" depart="58" departLane="random" departSpeed="1.00" color="1,0,1">
    <walk from="685156794#1" busStop="685156794#1" speed="1.5" />
    <stop busStop="685156794#1" duration="179" />
  </person>
  <person id="person_265" depart="59" departLane="random" departSpeed="1.00" color="1,0,0">
    <walk from="-4332734#6" busStop="-4332734#6" speed="1.5" />
    <stop busStop="-4332734#6" duration="433" />
    <walk from="-4332734#6" to="1112806233" speed="1.5" />
  </person>
  <person id="person_154" depart="60" departLane="random" departSpeed="1.00" color="0,1,0">
    <walk from="575729552#1" busStop="575729552#1" speed="1.5" />
    <ride from="575729552#1" to="176435849" lines="jeepney_0 jeepney_1 jeepney_2 jeepney_3 jeepney_4 jeepney_5 modernjeepney_0 modernjeepney_1 modernjeepney_2 modernjeepney_3 modernjeepney_4 modernjeepney_5" />
    <walk edges="176435849" speed="1.5" />
  </person>
  <person id="person_410" depart="62" departLane="random" departSpeed="1.00" color="1,0,0">
    <walk from="-4332734#6" busStop="-4332734#6" speed="1.5" />
    <stop busStop="-4332734#6" duration="373" />
    <walk from="-4332734#6" to="706706674#0" speed="1.5" />
  </person>
  <person id="person_141" depart="63" departLane="random" departSpeed="1.00" color="1,0,1">
    <walk from="729164042#1" busStop="729164042#1" speed="1.5" />
    <stop busStop="729164042#1" duration="578" />
  </person>
  <person id="person_301" depart="64" departLane="random" departSpeed="1.00" color="0,1,0">
    <walk from="48630242#2" busStop="48630242#2" speed="1.5" />
    <ride from="48630242#2" to="-923261416" lines="jeepney_0 jeepney_1 jeepney_2 jeepney_3 jeepney_4 jeepney_5 modernjeepney_0 modernjeepney_1 modernjeepney_2 modernjeepney_3 modernjeepney_4 modernjeepney_5" />
    <walk edges="-923261416" speed="1.5" />
  </person>
  <person id="person_29" depart="65" departLane="random" departSpeed="1.00" color="0,1,0">
    <walk from="176435844#5" busStop="176435844#5" speed="1.5" />
    <ride from="176435844#5" to="136822587#0" lines="jeepney_0 jeepney_1 jeepney_2 jeepney_3 jeepney_4 jeepney_5 modernjeepney_0 modernjeepney_1 modernjeepney_2 modernjeepney_3 modernjeepney_4 modernjeepney_5" />
    <walk edges="136822587#0" speed="1.5" />
  </person>
  <person id="person_289" depart="65" departLane="random" departSpeed="1.00" color="1,0,1">
    <walk from="-303412427#16" busStop="-303412427#16" speed="1.5" />
    <stop busStop="-303412427#16" duration="330" />
  </person>
  <person id="person_468" depart="71" departLane="random" departSpeed="1.00" color="1,0,0">
    <walk from="940627086" busStop="940627086" speed="1.5" />
    <stop busStop="940627086" duration="489" />
    <walk from="940627086" to="-29377703#4" speed="1.5" />
  </person>
  <person id="person_448" depart="72" departLane="random" departSpeed="1.00" color="1,0,1">
    <walk from="820063578#1" busStop="820063578#1" speed="1.5" />
    <stop busStop="820063578#1" duration="577" />
  </person>
  <person id="person_84" depart="73" departLane="random" departSpeed="1.00" color="1,0,0">
    <walk from="-303412427#13" busStop="-303412427#13" speed="1.5" />
    <stop busStop="-303412427#13" duration="599" />
    <walk from="-303412427#13" to="-303412427#1" speed="1.5" />
  </person>
  <person id="person_112" depart="73" departLane="random" departSpeed="1.00" color="1,0,0">
    <walk from="4478182" busStop="4478182" speed="1.5" />
    <stop busStop="4478182" duration="261" />
    <walk from="4478182" to="154644778#1" speed="1.5" />
  </person>
  <person id="person_185" depart="75" departLane="random" departSpeed="1.00" color="0,1,0">
    <walk from="121188638" busStop="121188638" speed="1.5" />
    <ride from="121188638" to="-29377703#2" lines="jeepney_0 jeepney_1 jeepney_2 jeepney_3 jeepney_4 jeepney_5 modernjeepney_0 modernjeepney_1 modernjeepney_2 modernjeepney_3 modernjeepney_4 modernjeepney_5" />
    <walk edges="-29377703#2" speed="1.5" />
  </person>
  <person id="person_69" depart="76" departLane="random" departSpeed="1.00" color="0,1,0">
    <walk from="176435850" busStop="176435850" speed="1.5" />
    <ride from="176435850" to="176435844#3" lines="jeepney_0 jeepney_1 jeepney_2 jeepney_3 jeepney_4 jeepney_5 modernjeepney_0 modernjeepney_1 modernjeepney_2 modernjeepney_3 modernjeepney_4 modernjeepney_5" />
    <walk edges="176435844#3" speed="1.5" />
  </person>
  <person id="person_408" depart="76" departLane="random" departSpeed="1.00" color="1,0,0">
    <walk from="5019952#5" busStop="5019952#5" speed="1.5" />
    <stop busStop="5019952#5" duration="544" />
    <walk from="5019952#5" to="16174062#5" speed="1.5" />
  </person>
  <person id="person_218" depart="77" departLane="random" departSpeed="1.00" color="1,0,0">
    <walk from="820063587#1" busStop="820063587#1" speed="1.5" />
    <stop busStop="820063587#1" duration="194" />
    <walk from="820063587#1" to="-303412427#10" speed="1.5" />
  </person>
  <person id="person_241" depart="78" departLane="random" departSpeed="1.00" color="0,1,0">
    <walk from="820063578#1" busStop="820063578#1" speed="1.5" />
    <ride from="820063578#1" to="-615478344#1" lines="jeepney_0 jeepney_1 jeepney_2 jeepney_3 jeepney_4 jeepney_5 modernjeepney_0 modernjeepney_1 modernjeepney_2 modernjeepney_3 modernjeepney_4 modernjeepney_5" />
    <walk edges="-615478344#1" speed="1.5" />
  </person>
  <person id="person_403" depart="78" departLane="random" departSpeed="1.00" color="1,0,1">
    <walk from="126342421" busStop="126342421" speed="1.5" />
    <stop busStop="126342421" duration="364" />
  </person>
  <person id="person_212" depart="79" departLane="random" departSpeed="1.00" color="1,0,0">
    <walk from="820063587#0" busStop="820063587#0" speed="1.5" />
    <stop busStop="820063587#0" duration="372" />
    <walk from="820063587#0" to="-303412427#5" speed="1.5" />
  </person>
  <person id="person_325" depart="81" departLane="random" departSpeed="1.00" color="1,0,1">
    <walk from="176435844#7" busStop="176435844#7" speed="1.5" />
    <stop busStop="176435844#7" duration="417" />
  </person>
  <person id="person_554" depart="81" departLane="random" departSpeed="1.00" color="0,1,0">
    <walk from="-303412427#14" busStop="-303412427#14" speed="1.5" />
    <ride from="-303412427#14" to="-303412427#2" lines="jeepney_0 jeepney_1 jeepney_2 jeepney_3 jeepney_4 jeepney_5 modernjeepney_0 modernjeepney_1 modernjeepney_2 modernjeepney_3 modernjeepney_4 modernjeepney_5" />
    <walk edges="-303412427#2" speed="1.5" />
  </person>
  <person id="person_134" depart="83" departLane="random" departSpeed="1.00" color="0,1,0">
    <walk from="5019952#4" busStop="5019952#4" speed="1.5" />
    <ride from="5019952#4" to="48630242#2" lines="jeepney_0 jeepney_1 jeepney_2 jeepney_3 jeepney_4 jeepney_5 modernjeepney_0 modernjeepney_1 modernjeepney_2 modernjeepney_3 modernjeepney_4 modernjeepney_5" />
    <walk edges="48630242#2" speed="1.5" />
  </person>
  <person id="person_227" depart="84" departLane="random" departSpeed="1.00" color="1,0,0">
    <walk from="575729552#1" busStop="575729552#1" speed="1.5" />
    <stop busStop="575729552#1" duration="337" />
    <walk from="575729552#1" to="575729108#3" speed="1.5" />
  </person>
  <person id="person_416" depart="84" departLane="random" departSpeed="1.00" color="1,0,1">
    <walk from="820063579#0" busStop="820063579#0" speed="1.5" />
    <stop busStop="820063579#0" duration="301" />
  </person>
  <person id="person_193" depart="85" departLane="random" departSpeed="1.00" color="1,0,1">
    <walk from="154644778#0" busStop="154644778#0" speed="1.5" />
    <stop busStop="154644778#0" duration="562" />
  </person>
  <person id="person_252" depart="85" departLane="random" departSpeed="1.00" color="1,0,1">
    <walk from="1174874706" busStop="1174874706" speed="1.5" />
    <stop busStop="1174874706" duration="297" />
  </person>
  <person id="person_417" depart="85" departLane="random" departSpeed="1.00" color="1,0,1">
    <walk from="303412427#9" busStop="303412427#9" speed="1.5" />
    <stop busStop="303412427#9" duration="470" />
  </person>
  <person id="person_441" depart="86" departLane="random" departSpeed="1.00" color="0,1,0">
    <walk from="4588647#4" busStop="4588647#4" speed="1.5" />
    <ride from="4588647#4" to="-29377703#4" lines="jeepney_0 jeepney_1 jeepney_2 jeepney_3 jeepney_4 jeepney_5 modernjeepney_0 modernjeepney_1 modernjeepney_2 modernjeepney_3 modernjeepney_4 modernjeepney_5" />
    <walk edges="-29377703#4" speed="1.5" />
  </person>
  <person id="person_44" depart="87" departLane="random" departSpeed="1.00" color="1,0,0">
    <walk from="923261416" busStop="923261416" speed="1.5" />
    <stop busStop="923261416" duration="198" />
    <walk from="923261416" to="-4588647#0" speed="1.5" />
  </person>
  <person id="person_419" depart="87" departLane="random" departSpeed="1.00" color="0,1,0">
    <walk from="729164042#1" busStop="729164042#1" speed="1.5" />