<?xml version="1.0" ?>
<routes xmlns:xsi="http://www.w3.org/2001/XMLSchema-instance" xsi:noNamespaceSchemaLocation="http://sumo.dlr.de/xsd/routes_file.xsd">
    <vehicle id="veh_44" type="motorcycle" depart="4">
        <route edges="-4588647 160192389"/>
    </vehicle>
    <vehicle id="veh_0" type="car" depart="5">
        <route edges="136822578 1174874706"/>
    </vehicle>
    <vehicle id="veh_45" type="motorcycle" depart="10">
        <route edges="-4588647 -917450542 1174874706"/>
    </vehicle>
    <vehicle id="veh_46" type="motorcycle" depart="13">
        <route edges="1174874706"/>
    </vehicle>
    <vehicle id="veh_47" type="motorcycle" depart="15">
        <route edges="-4588647 -917450542"/>
    </vehicle>
    <vehicle id="jeepney_0" type="traditional_jeepney" depart="15">
        <route edges="1112806233 4588647"/>
    </vehicle>
    <vehicle id="veh_1" type="car" depart="16">
        <route edges="-4588647 -917450542"/>
    </vehicle>
    <vehicle id="veh_2" type="car" depart="21">
        <route edges="-917450542 1174874706"/>
    </vehicle>
    <vehicle id="veh_48" type="motorcycle" depart="21">
        <route edges="1112806233 160192389"/>
    </vehicle>
    <vehicle id="veh_49" type="motorcycle" depart="27">
        <route edges="1112806233 160192389"/>
    </vehicle>
    <vehicle id="jeepney_1" type="traditional_jeepney" depart="27">
        <route edges="1112806233 4588647"/>
    </vehicle>
    <vehicle id="veh_3" type="car" depart="28">
        <route edges="136822578 1174874706"/>
    </vehicle>
    <vehicle id="veh_50" type="motorcycle" depart="30">
        <route edges="-917450542 1174874706"/>
    </vehicle>
    <vehicle id="veh_4" type="car" depart="31">
        <route edges="-4588647 4588647"/>
    </vehicle>
    <vehicle id="veh_51" type="motorcycle" depart="33">
        <route edges="775437708 917450543"/>
    </vehicle>
    <vehicle id="jeepney_2" type="traditional_jeepney" depart="37">
        <route edges="1112806233 4588647"/>
    </vehicle>
    <vehicle id="veh_52" type="motorcycle" depart="39">
        <route edges="-917450542 917450543"/>
    </vehicle>
    <vehicle id="veh_5" type="car" depart="41">
        <route edges="136822578 917450543"/>
    </vehicle>
    <vehicle id="veh_53" type="motorcycle" depart="42">
        <route edges="136822578 917450543"/>
    </vehicle>
    <vehicle id="veh_54" type="motorcycle" depart="43">
        <route edges="-4588647 -917450542 1174874706"/>
    </vehicle>
    <vehicle id="veh_55" type="motorcycle" depart="47">
        <route edges="1112806233 160192389"/>
    </vehicle>
    <vehicle id="jeepney_3" type="traditional_jeepney" depart="50">
        <route edges="-4588647 -917450542 1174874706"/>
    </vehicle>
    <vehicle id="veh_146" type="bicycle" depart="50">
        <route edges="775437708 917450543"/>
    </vehicle>
    <vehicle id="veh_6" type="car" depart="52">
        <route edges="-917450542 917450543"/>
    </vehicle>
    <vehicle id="veh_56" type="motorcycle" depart="52">
        <route edges="-4588647 -917450542"/>
    </vehicle>
    <vehicle id="veh_57" type="motorcycle" depart="55">
        <route edges="136822578 917450543"/>
    </vehicle>
    <vehicle id="veh_58" type="motorcycle" depart="57">
        <route edges="-4588647 4588647"/>
    </vehicle>
    <vehicle id="veh_59" type="motorcycle" depart="58">
        <route edges="-4588647 -917450542 1174874706"/>
    </vehicle>
    <vehicle id="veh_7" type="car" depart="59">
        <route edges="1112806233 160192389"/>
    </vehicle>
    <vehicle id="veh_8" type="car" depart="62">
        <route edges="-917450542 1174874706"/>
    </vehicle>
    <vehicle id="modernjeepney_0" type="modern_jeepney" depart="62">
        <route edges="-4588647 -917450542 1174874706"/>
    </vehicle>
    <vehicle id="veh_60" type="motorcycle" depart="65">
        <route edges="1174874706"/>
    </vehicle>
    <vehicle id="veh_61" type="motorcycle" depart="68">
        <route edges="1174874706"/>
    </vehicle>
    <vehicle id="jeepney_4" type="traditional_jeepney" depart="71">
        <route edges="-4588647 -917450542 1174874706"/>
    </vehicle>
    <vehicle id="veh_9" type="car" depart="73">
        <route edges="136822578 917450543"/>
    </vehicle>
    <vehicle id="veh_62" type="motorcycle" depart="73">
        <route edges="-917450542 917450543"/>
    </vehicle>
    <vehicle id="veh_10" type="car" depart="80">
        <route edges="775437708 917450543"/>
    </vehicle>
    <vehicle id="veh_63" type="motorcycle" depart="81">
        <route edges="1112806233 4588647"/>
    </vehicle>
    <vehicle id="veh_11" type="car" depart="84">
        <route edges="136822578 917450543"/>
    </vehicle>
    <vehicle id="jeepney_5" type="traditional_jeepney" depart="85">
        <route edges="-4588647 -917450542 1174874706"/>
    </vehicle>
    <vehicle id="veh_64" type="motorcycle" depart="88">
        <route edges="775437708 917450543"/>
    </vehicle>
    <vehicle id="veh_65" type="motorcycle" depart="89">
        <route edges="-4588647 -917450542 917450543"/>
    </vehicle>
    <vehicle id="veh_12" type="car" depart="90">
        <route edges="-917450542 1174874706"/>
    </vehicle>
    <vehicle id="veh_119" type="truck" depart="92">
        <route edges="775437708 917450543"/>
    </vehicle>
    <vehicle id="veh_66" type="motorcycle" depart="94">
        <route edges="136822578 1174874706"/>
    </vehicle>
    <vehicle id="jeepney_6" type="traditional_jeepney" depart="96">
        <route edges="1112806233 4588647"/>
    </vehicle>
    <vehicle id="veh_147" type="bicycle" depart="97">
        <route edges="136822578 1174874706"/>
    </vehicle>
    <vehicle id="veh_13" type="car" depart="100">
        <route edges="-4588647 4588647"/>
    </vehicle>
    <vehicle id="veh_67" type="motorcycle" depart="101">
        <route edges="-4588647 -917450542 1174874706"/>
    </vehicle>
    <vehicle id="veh_68" type="motorcycle" depart="103">
        <route edges="-917450542 1174874706"/>
    </vehicle>
    <vehicle id="veh_14" type="car" depart="104">
        <route edges="136822578 1174874706"/>
    </vehicle>
    <vehicle id="modernjeepney_1" type="modern_jeepney" depart="105">
        <route edges="-4588647 -917450542 1174874706"/>
    </vehicle>
    <vehicle id="veh_69" type="motorcycle" depart="107">
        <route edges="-4588647 -917450542 1174874706"/>
    </vehicle>
    <vehicle id="veh_70" type="motorcycle" depart="109">
        <route edges="-4588647 160192389"/>
    </vehicle>
    <vehicle id="jeepney_7" type="traditional_jeepney" depart="110">
        <route edges="-4588647 -917450542 1174874706"/>
    </vehicle>
    <vehicle id="veh_71" type="motorcycle" depart="112">
        <route edges="-4588647 -917450542 1174874706"/>
    </vehicle>
    <vehicle id="veh_15" type="car" depart="113">
        <route edges="-4588647 160192389"/>
    </vehicle>
    <vehicle id="veh_72" type="motorcycle" depart="116">
        <route edges="-917450542 1174874706"/>
    </vehicle>
    <vehicle id="veh_73" type="motorcycle" depart="118">
        <route edges="-917450542 1174874706"/>
    </vehicle>
    <vehicle id="veh_16" type="car" depart="120">
        <route edges="-917450542 1174874706"/>
    </vehicle>
    <vehicle id="veh_74" type="motorcycle" depart="122">
        <route edges="775437708 917450543"/>
    </vehicle>
    <vehicle id="jeepney_8" type="traditional_jeepney" depart="124">
        <route edges="-4588647 -917450542 1174874706"/>
    </vehicle>
    <vehicle id="veh_75" type="motorcycle" depart="126">
        <route edges="-4588647 -917450542 917450543"/>
    </vehicle>
    <vehicle id="veh_76" type="motorcycle" depart="127">
        <route edges="-4588647 -917450542 1174874706"/>
    </vehicle>
    <vehicle id="veh_17" type="car" depart="129">
        <route edges="1174874706"/>
    </vehicle>
    <vehicle id="veh_77" type="motorcycle" depart="133">
        <route edges="1174874706"/>
    </vehicle>
    <vehicle id="veh_78" type="motorcycle" depart="133">
        <route edges="136822578 1174874706"/>
    </vehicle>
    <vehicle id="veh_18" type="car" depart="135">
        <route edges="-4588647 160192389"/>
    </vehicle>
    <vehicle id="veh_79" type="motorcycle" depart="136">
        <route edges="-4588647 -917450542 917450543"/>
    </vehicle>
    <vehicle id="veh_148" type="bicycle" depart="136">
        <route edges="136822578 1174874706"/>
    </vehicle>
    <vehicle id="jeepney_9" type="traditional_jeepney" depart="137">
        <route edges="1112806233 4588647"/>
    </vehicle>
    <vehicle id="veh_19" type="car" depart="139">
        <route edges="1112806233 4588647"/>
    </vehicle>
    <vehicle id="veh_80" type="motorcycle" depart="142">
        <route edges="775437708 917450543"/>
    </vehicle>
    <vehicle id="veh_20" type="car" depart="146">
        <route edges="1174874706"/>
    </vehicle>
    <vehicle id="veh_81" type="motorcycle" depart="147">
        <route edges="-4588647 -917450542 1174874706"/>
    </vehicle>
    <vehicle id="jeepney_10" type="traditional_jeepney" depart="149">
        <route edges="1112806233 4588647"/>
    </vehicle>
    <vehicle id="veh_82" type="motorcycle" depart="150">
        <route edges="1112806233 160192389"/>
    </vehicle>
    <vehicle id="veh_21" type="car" depart="153">
        <route edges="-4588647 160192389"/>
    </vehicle>
    <vehicle id="veh_83" type="motorcycle" depart="153">
        <route edges="-4588647 -917450542 1174874706"/>
    </vehicle>
    <vehicle id="veh_84" type="motorcycle" depart="155">
        <route edges="1174874706"/>
    </vehicle>
    <vehicle id="veh_22" type="car" depart="157">
        <route edges="775437708 917450543"/>
    </vehicle>
    <vehicle id="veh_85" type="motorcycle" depart="159">
        <route edges="775437708 917450543"/>
    </vehicle>
    <vehicle id="veh_86" type="motorcycle" depart="162">
        <route edges="-4588647 -917450542 1174874706"/>
    </vehicle>
    <vehicle id="jeepney_11" type="traditional_jeepney" depart="163">
        <route edges="1112806233 4588647"/>
    </vehicle>
    <vehicle id="veh_23" type="car" depart="165">
        <route edges="-4588647 160192389"/>
    </vehicle>
    <vehicle id="veh_87" type="motorcycle" depart="166">
        <route edges="775437708 917450543"/>
    </vehicle>
    <vehicle id="veh_24" type="car" depart="169">
        <route edges="-4588647 160192389"/>
    </vehicle>
    <vehicle id="veh_88" type="motorcycle" depart="172">
        <route edges="1112806233 4588647"/>
    </vehicle>
    <vehicle id="jeepney_12" type="traditional_jeepney" depart="173">
        <route edges="1112806233 4588647"/>
    </vehicle>
    <vehicle id="veh_89" type="motorcycle" depart="174">
        <route edges="136822578 1174874706"/>
    </vehicle>
    <vehicle id="veh_25" type="car" depart="176">
        <route edges="-4588647 -917450542 1174874706"/>
    </vehicle>
    <vehicle id="veh_90" type="motorcycle" depart="179">
        <route edges="-4588647 -917450542 1174874706"/>
    </vehicle>
    <vehicle id="modernjeepney_2" type="modern_jeepney" depart="181">
        <route edges="1112806233 4588647"/>
    </vehicle>
    <vehicle id="veh_26" type="car" depart="182">
        <route edges="136822578 1174874706"/>
    </vehicle>
    <vehicle id="jeepney_13" type="traditional_jeepney" depart="187">
        <route edges="-4588647 -917450542 1174874706"/>
    </vehicle>
    <vehicle id="veh_91" type="motorcycle" depart="188">
        <route edges="1174874706"/>
    </vehicle>
    <vehicle id="veh_149" type="bicycle" depart="188">
        <route edges="136822578 1174874706"/>
    </vehicle>
    <vehicle id="veh_27" type="car" depart="189">
        <route edges="-4588647 160192389"/>
    </vehicle>
    <vehicle id="veh_92" type="motorcycle" depart="191">
        <route edges="136822578 1174874706"/>
    </vehicle>
    <vehicle id="veh_93" type="motorcycle" depart="195">
        <route edges="-917450542 917450543"/>
    </vehicle>
    <vehicle id="veh_28" type="car" depart="196">
        <route edges="136822578 917450543"/>
    </vehicle>
    <vehicle id="jeepney_14" type="traditional_jeepney" depart="198">
        <route edges="-4588647 -917450542 1174874706"/>
    </vehicle>
    <vehicle id="veh_94" type="motorcycle" depart="201">
        <route edges="-4588647 4588647"/>
    </vehicle>
    <vehicle id="veh_29" type="car" depart="202">
        <route edges="-917450542 1174874706"/>
    </vehicle>
    <vehicle id="veh_95" type="motorcycle" depart="204">
        <route edges="-917450542 1174874706"/>
    </vehicle>
    <vehicle id="veh_120" type="truck" depart="204">
        <route edges="-4588647 160192389"/>
    </vehicle>
    <vehicle id="veh_96" type="motorcycle" depart="207">
        <route edges="1112806233 160192389"/>
    </vehicle>
    <vehicle id="veh_30" type="car" depart="208">
        <route edges="136822578 1174874706"/>
    </vehicle>
    <vehicle id="veh_97" type="motorcycle" depart="210">
        <route edges="136822578 1174874706"/>
    </vehicle>
    <vehicle id="veh_98" type="motorcycle" depart="212">
        <route edges="-4588647 4588647"/>
    </vehicle>
    <vehicle id="veh_99" type="motorcycle" depart="213">
        <route edges="-4588647 -917450542 1174874706"/>
    </vehicle>
    <vehicle id="jeepney_15" type="traditional_jeepney" depart="214">
        <route edges="-4588647 -917450542 1174874706"/>
    </vehicle>
    <vehicle id="veh_31" type="car" depart="216">
        <route edges="-917450542 1174874706"/>
    </vehicle>
    <vehicle id="veh_100" type="motorcycle" depart="216">
        <route edges="1174874706"/>
    </vehicle>
    <vehicle id="veh_101" type="motorcycle" depart="217">
        <route edges="-4588647 -917450542 1174874706"/>
    </vehicle>
    <vehicle id="veh_32" type="car" depart="220">
        <route edges="1112806233 4588647"/>
    </vehicle>
    <vehicle id="veh_102" type="motorcycle" depart="220">
        <route edges="1174874706"/>
    </vehicle>
    <vehicle id="veh_103" type="motorcycle" depart="222">
        <route edges="-917450542 1174874706"/>
    </vehicle>
    <vehicle id="veh_33" type="car" depart="227">
        <route edges="-4588647 -917450542 917450543"/>
    </vehicle>
    <vehicle id="veh_104" type="motorcycle" depart="229">
        <route edges="-4588647 160192389"/>
    </vehicle>
    <vehicle id="jeepney_16" type="traditional_jeepney" depart="231">
        <route edges="1112806233 4588647"/>
    </vehicle>
    <vehicle id="veh_34" type="car" depart="235">
        <route edges="1112806233 160192389"/>
    </vehicle>
    <vehicle id="veh_105" type="motorcycle" depart="235">
        <route edges="-4588647 -917450542 1174874706"/>
    </vehicle>
    <vehicle id="modernjeepney_3" type="modern_jeepney" depart="237">
        <route edges="-4588647 -917450542 1174874706"/>
    </vehicle>
    <vehicle id="veh_150" type="bicycle" depart="237">
        <route edges="1112806233 4588647"/>
    </vehicle>
    <vehicle id="veh_106" type="motorcycle" depart="238">
        <route edges="775437708 917450543"/>
    </vehicle>
    <vehicle id="veh_35" type="car" depart="241">
        <route edges="-4588647 -917450542 917450543"/>
    </vehicle>
    <vehicle id="jeepney_17" type="traditional_jeepney" depart="244">
        <route edges="1112806233 4588647"/>
    </vehicle>
    <vehicle id="veh_36" type="car" depart="245">
        <route edges="-4588647 -917450542 917450543"/>
    </vehicle>
    <vehicle id="veh_107" type="motorcycle" depart="249">
        <route edges="1174874706"/>
    </vehicle>
    <vehicle id="veh_108" type="motorcycle" depart="251">
        <route edges="136822578 1174874706"/>
    </vehicle>
    <vehicle id="veh_37" type="car" depart="254">
        <route edges="1174874706"/>
    </vehicle>
    <vehicle id="veh_109" type="motorcycle" depart="254">
        <route edges="-4588647 -917450542"/>
    </vehicle>
    <vehicle id="jeepney_18" type="traditional_jeepney" depart="256">
        <route edges="-4588647 -917450542 1174874706"/>
    </vehicle>
    <vehicle id="veh_110" type="motorcycle" depart="260">
        <route edges="-4588647 -917450542 1174874706"/>
    </vehicle>
    <vehicle id="veh_38" type="car" depart="262">
        <route edges="-4588647 160192389"/>
    </vehicle>
    <vehicle id="veh_111" type="motorcycle" depart="265">
        <route edges="-4588647 160192389"/>
    </vehicle>
    <vehicle id="jeepney_19" type="traditional_jeepney" depart="268">
        <route edges="1112806233 4588647"/>
    </vehicle>
    <vehicle id="veh_39" type="car" depart="271">
        <route edges="-4588647 -917450542"/>
    </vehicle>
    <vehicle id="veh_112" type="motorcycle" depart="271">
        <route edges="1112806233 160192389"/>
    </vehicle>
    <vehicle id="veh_113" type="motorcycle" depart="274">
        <route edges="-917450542 1174874706"/>
    </vehicle>
    <vehicle id="veh_114" type="motorcycle" depart="276">
        <route edges="1112806233 160192389"/>
    </vehicle>
    <vehicle id="veh_40" type="car" depart="280">
        <route edges="1112806233 160192389"/>
    </vehicle>
    <vehicle id="veh_115" type="motorcycle" depart="282">
        <route edges="-917450542 1174874706"/>
    </vehicle>
    <vehicle id="veh_41" type="car" depart="286">
        <route edges="136822578 917450543"/>
    </vehicle>
    <vehicle id="veh_116" type="motorcycle" depart="286">
        <route edges="-4588647 4588647"/>
    </vehicle>
    <vehicle id="veh_42" type="car" depart="288">
        <route edges="-4588647 -917450542 917450543"/>
    </vehicle>
    <vehicle id="jeepney_20" type="traditional_jeepney" depart="290">
        <route edges="1112806233 4588647"/>
    </vehicle>
    <vehicle id="veh_151" type="bicycle" depart="291">
        <route edges="-4588647 -917450542 1174874706"/>
    </vehicle>
    <vehicle id="veh_43" type="car" depart="294">
        <route edges="-4588647 -917450542"/>
    </vehicle>
    <vehicle id="veh_117" type="motorcycle" depart="295">
        <route edges="-917450542 1174874706"/>
    </vehicle>
    <vehicle id="veh_118" type="motorcycle" depart="299">
        <route edges="136822578 917450543"/>
    </vehicle>
    <vehicle id="veh_199" type="motorcycle" depart="305">
        <route edges="136822578 917450543"/>
    </vehicle>
    <vehicle id="veh_152" type="car" depart="307">
        <route edges="1174874706"/>
    </vehicle>
    <vehicle id="veh_153" type="car" depart="311">
        <route edges="136822578 1174874706"/>
    </vehicle>
    <vehicle id="veh_200" type="motorcycle" depart="311">
        <route edges="-4588647 -917450542 1174874706"/>
    </vehicle>
    <vehicle id="veh_201" type="motorcycle" depart="313">
        <route edges="-917450542 1174874706"/>
    </vehicle>
    <vehicle id="veh_202" type="motorcycle" depart="318">
        <route edges="-4588647 4588647"/>
    </vehicle>
    <vehicle id="jeepney_21" type="traditional_jeepney" depart="320">
        <route edges="-4588647 -917450542 1174874706"/>
    </vehicle>
    <vehicle id="veh_154" type="car" depart="323">
        <route edges="-4588647 160192389"/>
    </vehicle>
    <vehicle id="veh_203" type="motorcycle" depart="328">
        <route edges="1174874706"/>
    </vehicle>
    <vehicle id="veh_155" type="car" depart="329">
        <route edges="1174874706"/>
    </vehicle>
    <vehicle id="veh_204" type="motorcycle" depart="331">
        <route edges="1112806233 4588647"/>
    </vehicle>
    <vehicle id="jeepney_22" type="traditional_jeepney" depart="332">
        <route edges="-4588647 -917450542 1174874706"/>
    </vehicle>
    <vehicle id="veh_156" type="car" depart="334">
        <route edges="-917450542 1174874706"/>
    </vehicle>
    <vehicle id="veh_205" type="motorcycle" depart="336">
        <route edges="-4588647 4588647"/>
    </vehicle>
    <vehicle id="veh_206" type="motorcycle" depart="341">
        <route edges="-4588647 -917450542"/>
    </vehicle>
    <vehicle id="veh_207" type="motorcycle" depart="342">
        <route edges="1174874706"/>
    </vehicle>
    <vehicle id="veh_295" type="bicycle" depart="343">
        <route edges="-917450542 917450543"/>
    </vehicle>
    <vehicle id="veh_157" type="car" depart="345">
        <route edges="-4588647 160192389"/>
    </vehicle>
    <vehicle id="veh_208" type="motorcycle" depart="345">
        <route edges="136822578 1174874706"/>
    </vehicle>
    <vehicle id="veh_209" type="motorcycle" depart="347">
        <route edges="1112806233 160192389"/>
    </vehicle>
    <vehicle id="jeepney_23" type="traditional_jeepney" depart="350">
        <route edges="-4588647 -917450542 1174874706"/>
    </vehicle>
    <vehicle id="veh_210" type="motorcycle" depart="351">
        <route edges="1112806233 4588647"/>
    </vehicle>
    <vehicle id="veh_158" type="car" depart="353">
        <route edges="-4588647 -917450542 1174874706"/>
    </vehicle>
    <vehicle id="veh_211" type="motorcycle" depart="356">
        <route edges="136822578 1174874706"/>
    </vehicle>
    <vehicle id="veh_212" type="motorcycle" depart="360">
        <route edges="-917450542 1174874706"/>
    </vehicle>
    <vehicle id="veh_159" type="car" depart="362">
        <route edges="1112806233 160192389"/>
    </vehicle>
    <vehicle id="jeepney_24" type="traditional_jeepney" depart="363">
        <route edges="1112806233 4588647"/>
    </vehicle>
    <vehicle id="veh_213" type="motorcycle" depart="364">
        <route edges="775437708 917450543"/>
    </vehicle>
    <vehicle id="veh_269" type="truck" depart="365">
        <route edges="136822578 1174874706"/>
    </vehicle>
    <vehicle id="veh_214" type="motorcycle" depart="367">
        <route edges="-917450542 1174874706"/>
    </vehicle>
    <vehicle id="veh_160" type="car" depart="368">
        <route edges="775437708 917450543"/>
    </vehicle>
    <vehicle id="veh_215" type="motorcycle" depart="371">
        <route edges="-4588647 160192389"/>
    </vehicle>
    <vehicle id="veh_161" type="car" depart="372">
        <route edges="1112806233 4588647"/>
    </vehicle>
    <vehicle id="veh_162" type="car" depart="376">
        <route edges="-917450542 1174874706"/>
    </vehicle>
    <vehicle id="veh_216" type="motorcycle" depart="376">
        <route edges="136822578 1174874706"/>
    </vehicle>
    <vehicle id="jeepney_25" type="traditional_jeepney" depart="377">
        <route edges="-4588647 -917450542 1174874706"/>
    </vehicle>
    <vehicle id="modernjeepney_4" type="modern_jeepney" depart="377">
        <route edges="1112806233 4588647"/>
    </vehicle>
    <vehicle id="veh_217" type="motorcycle" depart="378">
        <route edges="-917450542 1174874706"/>
    </vehicle>
    <vehicle id="veh_163" type="car" depart="383">
        <route edges="1112806233 160192389"/>
    </vehicle>
    <vehicle id="veh_218" type="motorcycle" depart="383">
        <route edges="-917450542 1174874706"/>
    </vehicle>
    <vehicle id="veh_219" type="motorcycle" depart="386">
        <route edges="-4588647 4588647"/>
    </vehicle>
    <vehicle id="veh_220" type="motorcycle" depart="391">
        <route edges="-4588647 -917450542 917450543"/>
    </vehicle>
    <vehicle id="veh_164" type="car" depart="392">
        <route edges="775437708 917450543"/>
    </vehicle>
    <vehicle id="jeepney_26" type="traditional_jeepney" depart="393">
        <route edges="1112806233 4588647"/>
    </vehicle>
    <vehicle id="veh_296" type="bicycle" depart="393">
        <route edges="-4588647 -917450542 1174874706"/>
    </vehicle>
    <vehicle id="veh_221" type="motorcycle" depart="397">
        <route edges="-4588647 4588647"/>
    </vehicle>
    <vehicle id="veh_165" type="car" depart="399">
        <route edges="-917450542 1174874706"/>
    </vehicle>
    <vehicle id="veh_222" type="motorcycle" depart="402">
        <route edges="-917450542 917450543"/>
    </vehicle>
    <vehicle id="veh_166" type="car" depart="407">
        <route edges="136822578 917450543"/>
    </vehicle>
    <vehicle id="veh_167" type="car" depart="411">
        <route edges="-4588647 -917450542 1174874706"/>
    </vehicle>
    <vehicle id="veh_223" type="motorcycle" depart="413">
        <route edges="-4588647 160192389"/>
    </vehicle>
    <vehicle id="jeepney_27" type="traditional_jeepney" depart="414">
        <route edges="1112806233 4588647"/>
    </vehicle>
    <vehicle id="veh_168" type="car" depart="418">
        <route edges="-4588647 -917450542 1174874706"/>
    </vehicle>
    <vehicle id="veh_224" type="motorcycle" depart="420">
        <route edges="-4588647 160192389"/>
    </vehicle>
    <vehicle id="veh_225" type="motorcycle" depart="424">
        <route edges="775437708 917450543"/>
    </vehicle>
    <vehicle id="veh_270" type="truck" depart="424">
        <route edges="-4588647 160192389"/>
    </vehicle>
    <vehicle id="veh_169" type="car" depart="425">
        <route edges="1174874706"/>
    </vehicle>
    <vehicle id="veh_226" type="motorcycle" depart="428">
        <route edges="136822578 1174874706"/>
    </vehicle>
    <vehicle id="veh_170" type="car" depart="429">
        <route edges="-917450542 1174874706"/>
    </vehicle>
    <vehicle id="jeepney_28" type="traditional_jeepney" depart="430">
        <route edges="1112806233 4588647"/>
    </vehicle>
    <vehicle id="veh_227" type="motorcycle" depart="434">
        <route edges="-917450542 917450543"/>
    </vehicle>
    <vehicle id="veh_171" type="car" depart="436">
        <route edges="1112806233 160192389"/>
    </vehicle>
    <vehicle id="veh_228" type="motorcycle" depart="436">
        <route edges="1174874706"/>
    </vehicle>
    <vehicle id="veh_172" type="car" depart="438">
        <route edges="-4588647 -917450542 917450543"/>
    </vehicle>
    <vehicle id="veh_229" type="motorcycle" depart="443">
        <route edges="1112806233 160192389"/>
    </vehicle>
    <vehicle id="veh_230" type="motorcycle" depart="444">
        <route edges="136822578 917450543"/>
    </vehicle>
    <vehicle id="veh_297" type="bicycle" depart="444">
        <route edges="775437708 917450543"/>
    </vehicle>
    <vehicle id="jeepney_29" type="traditional_jeepney" depart="445">
        <route edges="1112806233 4588647"/>
    </vehicle>
    <vehicle id="veh_231" type="motorcycle" depart="446">
        <route edges="1174874706"/>
    </vehicle>
    <vehicle id="veh_173" type="car" depart="447">
        <route edges="-4588647 4588647"/>
    </vehicle>
    <vehicle id="veh_232" type="motorcycle" depart="447">
        <route edges="-4588647 -917450542 1174874706"/>
    </vehicle>
    <vehicle id="veh_174" type="car" depart="449">
        <route edges="-4588647 -917450542 1174874706"/>
    </vehicle>
    <vehicle id="veh_233" type="motorcycle" depart="451">
        <route edges="-917450542 1174874706"/>
    </vehicle>
    <vehicle id="veh_234" type="motorcycle" depart="452">
        <route edges="1174874706"/>
    </vehicle>
    <vehicle id="modernjeepney_5" type="modern_jeepney" depart="455">
        <route edges="1112806233 4588647"/>
    </vehicle>
    <vehicle id="veh_175" type="car" depart="457">
        <route edges="-4588647 -917450542 917450543"/>
    </vehicle>
    <vehicle id="veh_235" type="motorcycle" depart="457">
        <route edges="-4588647 -917450542 1174874706"/>
    </vehicle>
    <vehicle id="veh_236" type="motorcycle" depart="461">
        <route edges="775437708 917450543"/>
    </vehicle>
    <vehicle id="jeepney_30" type="traditional_jeepney" depart="461">
        <route edges="1112806233 4588647"/>
    </vehicle>
    <vehicle id="veh_176" type="car" depart="462">
        <route edges="136822578 917450543"/>
    </vehicle>
    <vehicle id="veh_237" type="motorcycle" depart="464">
        <route edges="1112806233 160192389"/>
    </vehicle>
    <vehicle id="veh_177" type="car" depart="468">
        <route edges="1174874706"/>
    </vehicle>
    <vehicle id="veh_238" type="motorcycle" depart="469">
        <route edges="-917450542 917450543"/>
    </vehicle>
    <vehicle id="veh_271" type="truck" depart="469">
        <route edges="136822578 1174874706"/>
    </vehicle>
    <vehicle id="veh_239" type="motorcycle" depart="470">
        <route edges="1112806233 160192389"/>
    </vehicle>
    <vehicle id="veh_240" type="motorcycle" depart="472">
        <route edges="136822578 1174874706"/>
    </vehicle>
    <vehicle id="veh_178" type="car" depart="474">
        <route edges="136822578 1174874706"/>
    </vehicle>
    <vehicle id="jeepney_31" type="traditional_jeepney" depart="476">
        <route edges="1112806233 4588647"/>
    </vehicle>
    <vehicle id="veh_241" type="motorcycle" depart="477">
        <route edges="-4588647 -917450542 1174874706"/>
    </vehicle>
    <vehicle id="veh_242" type="motorcycle" depart="480">
        <route edges="-917450542 1174874706"/>
    </vehicle>
    <vehicle id="veh_179" type="car" depart="482">
        <route edges="-4588647 -917450542 1174874706"/>
    </vehicle>
    <vehicle id="veh_243" type="motorcycle" depart="487">
        <route edges="-4588647 4588647"/>
    </vehicle>
    <vehicle id="veh_180" type="car" depart="488">
        <route edges="1112806233 160192389"/>
    </vehicle>
    <vehicle id="veh_244" type="motorcycle" depart="488">
        <route edges="-4588647 -917450542 1174874706"/>
    </vehicle>
    <vehicle id="veh_298" type="bicycle" depart="491">
        <route edges="-917450542 917450543"/>
    </vehicle>
    <vehicle id="veh_245" type="motorcycle" depart="492">
        <route edges="-4588647 -917450542 1174874706"/>
    </vehicle>
    <vehicle id="jeepney_32" type="traditional_jeepney" depart="493">
        <route edges="1112806233 4588647"/>
    </vehicle>
    <vehicle id="veh_181" type="car" depart="495">
        <route edges="-4588647 -917450542 1174874706"/>
    </vehicle>
    <vehicle id="veh_246" type="motorcycle" depart="496">
        <route edges="-4588647 -917450542 1174874706"/>
    </vehicle>