<?xml version="1.0" ?>
<routes xmlns:xsi="http://www.w3.org/2001/XMLSchema-instance" xsi:noNamespaceSchemaLocation="http://sumo.dlr.de/xsd/routes_file.xsd">
    <vehicle id="veh_0" type="car" depart="2">
        <route edges="1174874706"/>
    </vehicle>
    <vehicle id="veh_40" type="motorcycle" depart="2">
        <route edges="-4588647 -917450542"/>
    </vehicle>
    <vehicle id="veh_41" type="motorcycle" depart="4">
        <route edges="1174874706"/>
    </vehicle>
    <vehicle id="veh_42" type="motorcycle" depart="6">
        <route edges="-4588647 -917450542"/>
    </vehicle>
    <vehicle id="veh_43" type="motorcycle" depart="8">
        <route edges="-917450542 1174874706"/>
    </vehicle>
    <vehicle id="veh_44" type="motorcycle" depart="11">
        <route edges="1112806233 160192389"/>
    </vehicle>
    <vehicle id="veh_1" type="car" depart="12">
        <route edges="1112806233 160192389"/>
    </vehicle>
    <vehicle id="veh_45" type="motorcycle" depart="14">
        <route edges="1112806233 160192389"/>
    </vehicle>
    <vehicle id="veh_46" type="motorcycle" depart="16">
        <route edges="136822578 1174874706"/>
    </vehicle>
    <vehicle id="veh_2" type="car" depart="19">
        <route edges="-4588647 -917450542 1174874706"/>
    </vehicle>
    <vehicle id="veh_47" type="motorcycle" depart="22">
        <route edges="136822578 917450543"/>
    </vehicle>
    <vehicle id="veh_3" type="car" depart="26">
        <route edges="-4588647 -917450542"/>
    </vehicle>
    <vehicle id="veh_48" type="motorcycle" depart="29">
        <route edges="-917450542 1174874706"/>
    </vehicle>
    <vehicle id="veh_49" type="motorcycle" depart="33">
        <route edges="136822578 1174874706"/>
    </vehicle>
    <vehicle id="veh_4" type="car" depart="35">
        <route edges="-4588647 160192389"/>
    </vehicle>
    <vehicle id="veh_5" type="car" depart="40">
        <route edges="-4588647 -917450542"/>
    </vehicle>
    <vehicle id="veh_50" type="motorcycle" depart="41">
        <route edges="1174874706"/>
    </vehicle>
    <vehicle id="veh_6" type="car" depart="46">
        <route edges="-4588647 -917450542 1174874706"/>
    </vehicle>
    <vehicle id="veh_51" type="motorcycle" depart="49">
        <route edges="-917450542 1174874706"/>
    </vehicle>
    <vehicle id="veh_52" type="motorcycle" depart="50">
        <route edges="-4588647 4588647"/>
    </vehicle>
    <vehicle id="veh_7" type="car" depart="54">
        <route edges="-917450542 1174874706"/>
    </vehicle>
    <vehicle id="jeepney_0" type="traditional_jeepney" depart="54">
        <route edges="1112806233 4588647"/>
    </vehicle>
    <vehicle id="veh_53" type="motorcycle" depart="55">
        <route edges="-4588647 -917450542 917450543"/>
    </vehicle>
    <vehicle id="veh_54" type="motorcycle" depart="58">
        <route edges="-4588647 4588647"/>
    </vehicle>
    <vehicle id="veh_8" type="car" depart="60">
        <route edges="1112806233 4588647"/>
    </vehicle>
    <vehicle id="veh_55" type="motorcycle" depart="60">
        <route edges="1112806233 4588647"/>
    </vehicle>
    <vehicle id="veh_56" type="motorcycle" depart="63">
        <route edges="1112806233 4588647"/>
    </vehicle>
    <vehicle id="veh_9" type="car" depart="66">
        <route edges="-917450542 1174874706"/>
    </vehicle>
    <vehicle id="veh_57" type="motorcycle" depart="66">
        <route edges="-4588647 4588647"/>
    </vehicle>
    <vehicle id="veh_135" type="bicycle" depart="69">
        <route edges="136822578 917450543"/>
    </vehicle>
    <vehicle id="veh_10" type="car" depart="71">
        <route edges="775437708 917450543"/>
    </vehicle>
    <vehicle id="veh_58" type="motorcycle" depart="71">
        <route edges="136822578 917450543"/>
    </vehicle>
    <vehicle id="veh_125" type="truck" depart="72">
        <route edges="136822578 1174874706"/>
    </vehicle>
    <vehicle id="veh_59" type="motorcycle" depart="73">
        <route edges="1174874706"/>
    </vehicle>
    <vehicle id="veh_60" type="motorcycle" depart="78">
        <route edges="-917450542 1174874706"/>
    </vehicle>
    <vehicle id="veh_11" type="car" depart="81">
        <route edges="-4588647 -917450542 1174874706"/>
    </vehicle>
    <vehicle id="veh_61" type="motorcycle" depart="82">
        <route edges="775437708 917450543"/>
    </vehicle>
    <vehicle id="veh_12" type="car" depart="83">
        <route edges="1112806233 160192389"/>
    </vehicle>
    <vehicle id="veh_62" type="motorcycle" depart="88">
        <route edges="-917450542 917450543"/>
    </vehicle>
    <vehicle id="veh_63" type="motorcycle" depart="91">
        <route edges="-4588647 -917450542 917450543"/>
    </vehicle>
    <vehicle id="veh_64" type="motorcycle" depart="92">
        <route edges="-917450542 1174874706"/>
    </vehicle>
    <vehicle id="veh_65" type="motorcycle" depart="93">
        <route edges="1112806233 4588647"/>
    </vehicle>
    <vehicle id="veh_13" type="car" depart="98">
        <route edges="-917450542 917450543"/>
    </vehicle>
    <vehicle id="veh_66" type="motorcycle" depart="101">
        <route edges="-917450542 917450543"/>
    </vehicle>
    <vehicle id="veh_67" type="motorcycle" depart="103">
        <route edges="-917450542 917450543"/>
    </vehicle>
    <vehicle id="veh_14" type="car" depart="104">
        <route edges="1174874706"/>
    </vehicle>
    <vehicle id="veh_68" type="motorcycle" depart="106">
        <route edges="136822578 917450543"/>
    </vehicle>
    <vehicle id="veh_69" type="motorcycle" depart="110">
        <route edges="136822578 1174874706"/>
    </vehicle>
    <vehicle id="veh_70" type="motorcycle" depart="113">
        <route edges="-917450542 1174874706"/>
    </vehicle>
    <vehicle id="veh_15" type="car" depart="116">
        <route edges="-917450542 917450543"/>
    </vehicle>
    <vehicle id="veh_71" type="motorcycle" depart="117">
        <route edges="136822578 1174874706"/>
    </vehicle>
    <vehicle id="veh_72" type="motorcycle" depart="118">
        <route edges="-4588647 4588647"/>
    </vehicle>
    <vehicle id="veh_73" type="motorcycle" depart="122">
        <route edges="-917450542 917450543"/>
    </vehicle>
    <vehicle id="veh_16" type="car" depart="123">
        <route edges="-4588647 -917450542 917450543"/>
    </vehicle>
    <vehicle id="veh_74" type="motorcycle" depart="124">
        <route edges="-917450542 1174874706"/>
    </vehicle>
    <vehicle id="jeepney_1" type="traditional_jeepney" depart="126">
        <route edges="-4588647 -917450542 1174874706"/>
    </vehicle>
    <vehicle id="veh_75" type="motorcycle" depart="127">
        <route edges="-4588647 -917450542"/>
    </vehicle>
    <vehicle id="veh_76" type="motorcycle" depart="129">
        <route edges="1112806233 4588647"/>
    </vehicle>
    <vehicle id="veh_77" type="motorcycle" depart="131">
        <route edges="-917450542 917450543"/>
    </vehicle>
    <vehicle id="veh_136" type="bicycle" depart="131">
        <route edges="-4588647 -917450542"/>
    </vehicle>
    <vehicle id="veh_17" type="car" depart="132">
        <route edges="136822578 1174874706"/>
    </vehicle>
    <vehicle id="veh_18" type="car" depart="140">
        <route edges="1174874706"/>
    </vehicle>
    <vehicle id="veh_78" type="motorcycle" depart="140">
        <route edges="1174874706"/>
    </vehicle>
    <vehicle id="veh_79" type="motorcycle" depart="140">
        <route edges="1112806233 4588647"/>
    </vehicle>
    <vehicle id="veh_80" type="motorcycle" depart="142">
        <route edges="-4588647 -917450542"/>
    </vehicle>
    <vehicle id="veh_19" type="car" depart="143">
        <route edges="1112806233 4588647"/>
    </vehicle>
    <vehicle id="veh_81" type="motorcycle" depart="149">
        <route edges="1174874706"/>
    </vehicle>
    <vehicle id="veh_20" type="car" depart="151">
        <route edges="136822578 1174874706"/>
    </vehicle>
    <vehicle id="veh_82" type="motorcycle" depart="151">
        <route edges="775437708 917450543"/>
    </vehicle>
    <vehicle id="veh_83" type="motorcycle" depart="153">
        <route edges="136822578 917450543"/>
    </vehicle>
    <vehicle id="veh_129" type="bus" depart="154">
        <route edges="-4588647 160192389"/>
    </vehicle>
    <vehicle id="veh_84" type="motorcycle" depart="155">
        <route edges="775437708 917450543"/>
    </vehicle>
    <vehicle id="veh_21" type="car" depart="156">
        <route edges="-4588647 -917450542 1174874706"/>
    </vehicle>
    <vehicle id="veh_85" type="motorcycle" depart="156">
        <route edges="775437708 917450543"/>
    </vehicle>
    <vehicle id="veh_126" type="truck" depart="161">
        <route edges="1112806233 4588647"/>
    </vehicle>
    <vehicle id="veh_22" type="car" depart="162">
        <route edges="-4588647 160192389"/>
    </vehicle>
    <vehicle id="veh_86" type="motorcycle" depart="163">
        <route edges="1112806233 4588647"/>
    </vehicle>
    <vehicle id="veh_87" type="motorcycle" depart="165">
        <route edges="1174874706"/>
    </vehicle>
    <vehicle id="veh_88" type="motorcycle" depart="168">
        <route edges="-4588647 -917450542"/>
    </vehicle>
    <vehicle id="veh_23" type="car" depart="169">
        <route edges="1174874706"/>
    </vehicle>
    <vehicle id="veh_89" type="motorcycle" depart="171">
        <route edges="-917450542 1174874706"/>
    </vehicle>
    <vehicle id="veh_90" type="motorcycle" depart="173">
        <route edges="-917450542 917450543"/>
    </vehicle>
    <vehicle id="veh_91" type="motorcycle" depart="179">
        <route edges="-4588647 160192389"/>
    </vehicle>
    <vehicle id="veh_24" type="car" depart="181">
        <route edges="136822578 917450543"/>
    </vehicle>
    <vehicle id="veh_92" type="motorcycle" depart="184">
        <route edges="-4588647 -917450542 917450543"/>
    </vehicle>
    <vehicle id="veh_25" type="car" depart="186">
        <route edges="1174874706"/>
    </vehicle>
    <vehicle id="veh_93" type="motorcycle" depart="187">
        <route edges="136822578 917450543"/>
    </vehicle>
    <vehicle id="veh_26" type="car" depart="191">
        <route edges="-4588647 -917450542"/>
    </vehicle>
    <vehicle id="jeepney_2" type="traditional_jeepney" depart="193">
        <route edges="-4588647 -917450542 1174874706"/>
    </vehicle>
    <vehicle id="veh_94" type="motorcycle" depart="194">
        <route edges="136822578 1174874706"/>
    </vehicle>
    <vehicle id="veh_95" type="motorcycle" depart="197">
        <route edges="-917450542 1174874706"/>
    </vehicle>
    <vehicle id="veh_27" type="car" depart="199">
        <route edges="1112806233 160192389"/>
    </vehicle>
    <vehicle id="veh_96" type="motorcycle" depart="203">
        <route edges="-917450542 1174874706"/>
    </vehicle>
    <vehicle id="veh_137" type="bicycle" depart="204">
        <route edges="-4588647 4588647"/>
    </vehicle>
    <vehicle id="veh_28" type="car" depart="206">
        <route edges="136822578 1174874706"/>
    </vehicle>
    <vehicle id="veh_97" type="motorcycle" depart="206">
        <route edges="1112806233 160192389"/>
    </vehicle>
    <vehicle id="veh_98" type="motorcycle" depart="208">
        <route edges="136822578 1174874706"/>
    </vehicle>
    <vehicle id="veh_29" type="car" depart="210">
        <route edges="136822578 1174874706"/>
    </vehicle>
    <vehicle id="veh_99" type="motorcycle" depart="210">
        <route edges="-917450542 917450543"/>
    </vehicle>
    <vehicle id="veh_100" type="motorcycle" depart="213">
        <route edges="-917450542 1174874706"/>
    </vehicle>
    <vehicle id="veh_30" type="car" depart="217">
        <route edges="-4588647 -917450542 917450543"/>
    </vehicle>
    <vehicle id="veh_101" type="motorcycle" depart="220">
        <route edges="775437708 917450543"/>
    </vehicle>
    <vehicle id="veh_102" type="motorcycle" depart="222">
        <route edges="-4588647 -917450542"/>
    </vehicle>
    <vehicle id="veh_103" type="motorcycle" depart="224">
        <route edges="136822578 917450543"/>
    </vehicle>
    <vehicle id="veh_127" type="truck" depart="224">
        <route edges="136822578 1174874706"/>
    </vehicle>
    <vehicle id="veh_31" type="car" depart="225">
        <route edges="136822578 1174874706"/>
    </vehicle>
    <vehicle id="veh_104" type="motorcycle" depart="227">
        <route edges="-917450542 1174874706"/>
    </vehicle>
    <vehicle id="veh_105" type="motorcycle" depart="227">
        <route edges="1112806233 4588647"/>
    </vehicle>
    <vehicle id="veh_106" type="motorcycle" depart="229">
        <route edges="-4588647 -917450542"/>
    </vehicle>
    <vehicle id="veh_107" type="motorcycle" depart="230">
        <route edges="-917450542 917450543"/>
    </vehicle>
    <vehicle id="veh_108" type="motorcycle" depart="232">
        <route edges="-4588647 4588647"/>
    </vehicle>
    <vehicle id="veh_109" type="motorcycle" depart="233">
        <route edges="1112806233 160192389"/>
    </vehicle>
    <vehicle id="veh_32" type="car" depart="234">
        <route edges="-4588647 160192389"/>
    </vehicle>
    <vehicle id="veh_110" type="motorcycle" depart="234">
        <route edges="-4588647 4588647"/>
    </vehicle>
    <vehicle id="veh_111" type="motorcycle" depart="237">
        <route edges="1174874706"/>
    </vehicle>
    <vehicle id="veh_33" type="car" depart="238">
        <route edges="-917450542 917450543"/>
    </vehicle>
    <vehicle id="veh_112" type="motorcycle" depart="239">
        <route edges="-4588647 4588647"/>
    </vehicle>
    <vehicle id="veh_113" type="motorcycle" depart="243">
        <route edges="1112806233 160192389"/>
    </vehicle>
    <vehicle id="veh_114" type="motorcycle" depart="249">
        <route edges="136822578 1174874706"/>
    </vehicle>
    <vehicle id="veh_34" type="car" depart="250">
        <route edges="-4588647 160192389"/>
    </vehicle>
    <vehicle id="veh_115" type="motorcycle" depart="253">
        <route edges="-4588647 -917450542 1174874706"/>
    </vehicle>
    <vehicle id="veh_116" type="motorcycle" depart="255">
        <route edges="775437708 917450543"/>
    </vehicle>
    <vehicle id="veh_117" type="motorcycle" depart="257">
        <route edges="-4588647 -917450542 1174874706"/>
    </vehicle>
    <vehicle id="veh_35" type="car" depart="258">
        <route edges="-917450542 917450543"/>
    </vehicle>
    <vehicle id="veh_118" type="motorcycle" depart="258">
        <route edges="1174874706"/>
    </vehicle>
    <vehicle id="veh_119" type="motorcycle" depart="261">
        <route edges="136822578 917450543"/>
    </vehicle>
    <vehicle id="veh_36" type="car" depart="262">
        <route edges="-4588647 -917450542"/>
    </vehicle>
    <vehicle id="jeepney_3" type="traditional_jeepney" depart="264">
        <route edges="-4588647 -917450542 1174874706"/>
    </vehicle>
    <vehicle id="veh_120" type="motorcycle" depart="266">
        <route edges="775437708 917450543"/>
    </vehicle>
    <vehicle id="veh_37" type="car" depart="268">
        <route edges="136822578 917450543"/>
    </vehicle>
    <vehicle id="veh_121" type="motorcycle" depart="272">
        <route edges="1112806233 160192389"/>
    </vehicle>
    <vehicle id="veh_122" type="motorcycle" depart="277">
        <route edges="-4588647 4588647"/>
    </vehicle>
    <vehicle id="veh_38" type="car" depart="278">
        <route edges="1174874706"/>
    </vehicle>
    <vehicle id="veh_123" type="motorcycle" depart="281">
        <route edges="-4588647 4588647"/>
    </vehicle>
    <vehicle id="veh_124" type="motorcycle" depart="283">
        <route edges="1174874706"/>
    </vehicle>
    <vehicle id="veh_39" type="car" depart="287">
        <route edges="136822578 1174874706"/>
    </vehicle>
    <vehicle id="veh_138" type="bicycle" depart="288">
        <route edges="-917450542 917450543"/>
    </vehicle>
    <vehicle id="veh_130" type="bus" depart="295">
        <route edges="-4588647 -917450542 1174874706"/>
    </vehicle>
    <vehicle id="veh_128" type="truck" depart="298">
        <route edges="1174874706"/>
    </vehicle>
    <vehicle id="veh_139" type="car" depart="304">
        <route edges="1174874706"/>
    </vehicle>
    <vehicle id="veh_251" type="bicycle" depart="306">
        <route edges="136822578 1174874706"/>
    </vehicle>
    <vehicle id="veh_140" type="car" depart="312">
        <route edges="1174874706"/>
    </vehicle>
    <vehicle id="veh_185" type="motorcycle" depart="314">
        <route edges="-4588647 160192389"/>
    </vehicle>
    <vehicle id="veh_141" type="car" depart="317">
        <route edges="-4588647 4588647"/>
    </vehicle>
    <vehicle id="veh_252" type="bicycle" depart="317">
        <route edges="-4588647 160192389"/>
    </vehicle>
    <vehicle id="jeepney_4" type="traditional_jeepney" depart="320">
        <route edges="1112806233 4588647"/>
    </vehicle>
    <vehicle id="veh_186" type="motorcycle" depart="321">
        <route edges="775437708 917450543"/>
    </vehicle>
    <vehicle id="veh_142" type="car" depart="323">
        <route edges="-4588647 -917450542"/>
    </vehicle>
    <vehicle id="veh_187" type="motorcycle" depart="327">
        <route edges="-4588647 -917450542 1174874706"/>
    </vehicle>
    <vehicle id="veh_253" type="bicycle" depart="327">
        <route edges="-917450542 917450543"/>
    </vehicle>
    <vehicle id="veh_143" type="car" depart="330">
        <route edges="136822578 917450543"/>
    </vehicle>
    <vehicle id="veh_254" type="bicycle" depart="333">
        <route edges="-4588647 -917450542 1174874706"/>
    </vehicle>
    <vehicle id="veh_188" type="motorcycle" depart="334">
        <route edges="1174874706"/>
    </vehicle>
    <vehicle id="veh_144" type="car" depart="336">
        <route edges="136822578 917450543"/>
    </vehicle>
    <vehicle id="veh_255" type="bicycle" depart="340">
        <route edges="775437708 917450543"/>
    </vehicle>
    <vehicle id="veh_189" type="motorcycle" depart="341">
        <route edges="-4588647 -917450542 917450543"/>
    </vehicle>
    <vehicle id="veh_145" type="car" depart="342">
        <route edges="-4588647 160192389"/>
    </vehicle>
    <vehicle id="jeepney_5" type="traditional_jeepney" depart="343">
        <route edges="-4588647 -917450542 1174874706"/>
    </vehicle>
    <vehicle id="veh_190" type="motorcycle" depart="349">
        <route edges="-917450542 1174874706"/>
    </vehicle>
    <vehicle id="veh_256" type="bicycle" depart="350">
        <route edges="-917450542 1174874706"/>
    </vehicle>
    <vehicle id="veh_146" type="car" depart="351">
        <route edges="-4588647 -917450542 1174874706"/>
    </vehicle>
    <vehicle id="veh_191" type="motorcycle" depart="355">
        <route edges="-4588647 -917450542 917450543"/>
    </vehicle>
    <vehicle id="veh_231" type="truck" depart="355">
        <route edges="136822578 1174874706"/>
    </vehicle>
    <vehicle id="veh_147" type="car" depart="357">
        <route edges="1112806233 4588647"/>
    </vehicle>
    <vehicle id="veh_257" type="bicycle" depart="360">
        <route edges="-917450542 1174874706"/>
    </vehicle>
    <vehicle id="veh_148" type="car" depart="362">
        <route edges="-4588647 -917450542"/>
    </vehicle>
    <vehicle id="jeepney_6" type="traditional_jeepney" depart="362">
        <route edges="1112806233 4588647"/>
    </vehicle>
    <vehicle id="veh_192" type="motorcycle" depart="366">
        <route edges="-4588647 -917450542 1174874706"/>
    </vehicle>
    <vehicle id="veh_258" type="bicycle" depart="368">
        <route edges="1112806233 160192389"/>
    </vehicle>
    <vehicle id="veh_149" type="car" depart="369">
        <route edges="-4588647 -917450542 917450543"/>
    </vehicle>
    <vehicle id="veh_193" type="motorcycle" depart="371">
        <route edges="1174874706"/>
    </vehicle>
    <vehicle id="veh_150" type="car" depart="375">
        <route edges="-4588647 -917450542 1174874706"/>
    </vehicle>
    <vehicle id="veh_259" type="bicycle" depart="376">
        <route edges="-4588647 -917450542 1174874706"/>
    </vehicle>
    <vehicle id="veh_194" type="motorcycle" depart="378">
        <route edges="1112806233 160192389"/>
    </vehicle>
    <vehicle id="veh_151" type="car" depart="379">
        <route edges="-4588647 -917450542"/>
    </vehicle>
    <vehicle id="veh_195" type="motorcycle" depart="382">
        <route edges="-4588647 4588647"/>
    </vehicle>
    <vehicle id="jeepney_7" type="traditional_jeepney" depart="383">
        <route edges="-4588647 -917450542 1174874706"/>
    </vehicle>
    <vehicle id="veh_260" type="bicycle" depart="383">
        <route edges="-4588647 -917450542 917450543"/>
    </vehicle>
    <vehicle id="veh_152" type="car" depart="387">
        <route edges="-4588647 -917450542"/>
    </vehicle>
    <vehicle id="veh_196" type="motorcycle" depart="389">
        <route edges="-917450542 1174874706"/>
    </vehicle>
    <vehicle id="veh_261" type="bicycle" depart="391">
        <route edges="136822578 1174874706"/>
    </vehicle>
    <vehicle id="veh_153" type="car" depart="394">
        <route edges="-4588647 -917450542 1174874706"/>
    </vehicle>
    <vehicle id="veh_197" type="motorcycle" depart="396">
        <route edges="-4588647 -917450542 917450543"/>
    </vehicle>
    <vehicle id="veh_154" type="car" depart="397">
        <route edges="136822578 917450543"/>
    </vehicle>
    <vehicle id="jeepney_8" type="traditional_jeepney" depart="398">
        <route edges="1112806233 4588647"/>
    </vehicle>
    <vehicle id="veh_198" type="motorcycle" depart="400">
        <route edges="1174874706"/>
    </vehicle>
    <vehicle id="veh_262" type="bicycle" depart="400">
        <route edges="1174874706"/>
    </vehicle>
    <vehicle id="veh_155" type="car" depart="403">
        <route edges="-4588647 4588647"/>
    </vehicle>
    <vehicle id="veh_199" type="motorcycle" depart="404">
        <route edges="136822578 1174874706"/>
    </vehicle>
    <vehicle id="veh_156" type="car" depart="407">
        <route edges="-917450542 1174874706"/>
    </vehicle>
    <vehicle id="veh_232" type="truck" depart="407">
        <route edges="-917450542 1174874706"/>
    </vehicle>
    <vehicle id="veh_200" type="motorcycle" depart="408">
        <route edges="136822578 1174874706"/>
    </vehicle>
    <vehicle id="veh_263" type="bicycle" depart="409">
        <route edges="-4588647 160192389"/>
    </vehicle>
    <vehicle id="veh_157" type="car" depart="414">
        <route edges="-917450542 917450543"/>
    </vehicle>
    <vehicle id="veh_201" type="motorcycle" depart="415">
        <route edges="1112806233 4588647"/>
    </vehicle>
    <vehicle id="veh_158" type="car" depart="416">
        <route edges="1174874706"/>
    </vehicle>
    <vehicle id="jeepney_9" type="traditional_jeepney" depart="418">
        <route edges="-4588647 -917450542 1174874706"/>
    </vehicle>
    <vehicle id="veh_264" type="bicycle" depart="418">
        <route edges="1112806233 160192389"/>
    </vehicle>
    <vehicle id="veh_202" type="motorcycle" depart="419">
        <route edges="-4588647 -917450542 1174874706"/>
    </vehicle>
    <vehicle id="veh_159" type="car" depart="422">
        <route edges="1174874706"/>
    </vehicle>
    <vehicle id="veh_203" type="motorcycle" depart="424">
        <route edges="775437708 917450543"/>
    </vehicle>
    <vehicle id="veh_265" type="bicycle" depart="427">
        <route edges="1112806233 160192389"/>
    </vehicle>
    <vehicle id="veh_160" type="car" depart="428">
        <route edges="-4588647 160192389"/>
    </vehicle>
    <vehicle id="veh_204" type="motorcycle" depart="432">
        <route edges="-917450542 1174874706"/>
    </vehicle>
    <vehicle id="veh_161" type="car" depart="434">
        <route edges="-4588647 -917450542 1174874706"/>
    </vehicle>
    <vehicle id="jeepney_10" type="traditional_jeepney" depart="434">
        <route edges="1112806233 4588647"/>
    </vehicle>
    <vehicle id="veh_205" type="motorcycle" depart="439">
        <route edges="136822578 917450543"/>
    </vehicle>
    <vehicle id="veh_266" type="bicycle" depart="439">
        <route edges="1174874706"/>
    </vehicle>
    <vehicle id="veh_267" type="bicycle" depart="442">
        <route edges="775437708 917450543"/>
    </vehicle>
    <vehicle id="veh_162" type="car" depart="443">
        <route edges="136822578 1174874706"/>
    </vehicle>
    <vehicle id="veh_163" type="car" depart="448">
        <route edges="-917450542 1174874706"/>
    </vehicle>
    <vehicle id="veh_206" type="motorcycle" depart="448">
        <route edges="1112806233 4588647"/>
    </vehicle>
    <vehicle id="veh_268" type="bicycle" depart="450">
        <route edges="1112806233 4588647"/>
    </vehicle>
    <vehicle id="veh_207" type="motorcycle" depart="455">
        <route edges="1174874706"/>
    </vehicle>
    <vehicle id="veh_164" type="car" depart="458">
        <route edges="-4588647 -917450542 1174874706"/>
    </vehicle>
    <vehicle id="veh_269" type="bicycle" depart="458">
        <route edges="1174874706"/>
    </vehicle>
    <vehicle id="veh_208" type="motorcycle" depart="462">
        <route edges="775437708 917450543"/>
    </vehicle>
    <vehicle id="jeepney_11" type="traditional_jeepney" depart="465">
        <route edges="1112806233 4588647"/>
    </vehicle>
    <vehicle id="veh_270" type="bicycle" depart="466">
        <route edges="-4588647 -917450542 917450543"/>
    </vehicle>
    <vehicle id="veh_209" type="motorcycle" depart="467">
        <route edges="-4588647 -917450542 1174874706"/>
    </vehicle>
    <vehicle id="veh_165" type="car" depart="468">
        <route edges="136822578 1174874706"/>
    </vehicle>
    <vehicle id="veh_271" type="bicycle" depart="470">
        <route edges="-917450542 1174874706"/>
    </vehicle>
    <vehicle id="veh_210" type="motorcycle" depart="473">
        <route edges="1112806233 160192389"/>
    </vehicle>
    <vehicle id="veh_233" type="truck" depart="473">
        <route edges="-4588647 -917450542 1174874706"/>
    </vehicle>
    <vehicle id="veh_166" type="car" depart="476">
        <route edges="136822578 1174874706"/>
    </vehicle>
    <vehicle id="veh_272" type="bicycle" depart="476">
        <route edges="-4588647 4588647"/>
    </vehicle>
    <vehicle id="veh_167" type="car" depart="482">
        <route edges="1174874706"/>
    </vehicle>
    <vehicle id="veh_211" type="motorcycle" depart="484">
        <route edges="-917450542 1174874706"/>
    </vehicle>
    <vehicle id="veh_273" type="bicycle" depart="484">
        <route edges="1112806233 160192389"/>
    </vehicle>
    <vehicle id="jeepney_12" type="traditional_jeepney" depart="486">
        <route edges="-4588647 -917450542 1174874706"/>
    </vehicle>
    <vehicle id="veh_168" type="car" depart="489">
        <route edges="1112806233 4588647"/>
    </vehicle>
    <vehicle id="veh_212" type="motorcycle" depart="493">
        <route edges="1112806233 160192389"/>
    </vehicle>
    <vehicle id="veh_169" type="car" depart="494">
        <route edges="136822578 1174874706"/>
    </vehicle>
    <vehicle id="veh_274" type="bicycle" depart="495">
        <route edges="1112806233 4588647"/>
    </vehicle>
    <vehicle id="veh_213" type="motorcycle" depart="498">
        <route edges="-4588647 -917450542 917450543"/>
    </vehicle>
    <vehicle id="veh_170" type="car" depart="499">
        <route edges="-4588647 -917450542 1174874706"/>
    </vehicle>
    <vehicle id="veh_214" type="motorcycle" depart="501">
        <route edges="-4588647 -917450542 1174874706"/>
    </vehicle>
    <vehicle id="veh_275" type="bicycle" depart="501">
        <route edges="1174874706"/>
    </vehicle>
    <vehicle id="veh_171" type="car" depart="502">
        <route edges="775437708 917450543"/>
    </vehicle>
    <vehicle id="jeepney_13" type="traditional_jeepney" depart="509">
        <route edges="-4588647 -917450542 1174874706"/>
    </vehicle>
    <vehicle id="veh_172" type="car" depart="510">
        <route edges="136822578 1174874706"/>
    </vehicle>
    <vehicle id="veh_215" type="motorcycle" depart="510">
        <route edges="-917450542 917450543"/>
    </vehicle>
    <vehicle id="veh_276" type="bicycle" depart="514">
        <route edges="1112806233 160192389"/>
    </vehicle>
    <vehicle id="veh_216" type="motorcycle" depart="516">
        <route edges="-917450542 917450543"/>
    </vehicle>
    <vehicle id="veh_277" type="bicycle" depart="521">
        <route edges="-917450542 917450543"/>
    </vehicle>
    <vehicle id="veh_173" type="car" depart="524">
        <route edges="1112806233 160192389"/>
    </vehicle>
    <vehicle id="veh_217" type="motorcycle" depart="524">
        <route edges="1112806233 160192389"/>
    </vehicle>
    <vehicle id="veh_278" type="bicycle" depart="527">
        <route edges="1112806233 160192389"/>
    </vehicle>
    <vehicle id="jeepney_14" type="traditional_jeepney" depart="528">
        <route edges="-4588647 -917450542 1174874706"/>
    </vehicle>
    <vehicle id="veh_218" type="motorcycle" depart="530">
        <route edges="-4588647 -917450542 1174874706"/>
    </vehicle>
    <vehicle id="veh_174" type="car" depart="533">
        <route edges="-4588647 -917450542"/>
    </vehicle>
    <vehicle id="veh_219" type="motorcycle" depart="534">
        <route edges="-4588647 -917450542"/>
    </vehicle>
    <vehicle id="veh_279" type="bicycle" depart="537">
        <route edges="-4588647 -917450542 1174874706"/>
    </vehicle>
    <vehicle id="veh_175" type="car" depart="538">
        <route edges="-4588647 4588647"/>
    </vehicle>
    <vehicle id="veh_220" type="motorcycle" depart="540">
        <route edges="136822578 917450543"/>
    </vehicle>
    <vehicle id="veh_221" type="motorcycle" depart="541">
        <route edges="136822578 1174874706"/>
    </vehicle>
    <vehicle id="veh_176" type="car" depart="542">