<?xml version="1.0" encoding="UTF-8"?>

<!-- generated on 2024-05-13 17:13:24 by Eclipse SUMO duarouter Version 1.19.0
<configuration xmlns:xsi="http://www.w3.org/2001/XMLSchema-instance" xsi:noNamespaceSchemaLocation="http://sumo.dlr.de/xsd/duarouterConfiguration.xsd">

    <input>
        <net-file value="Route 1/blumentritt-divisoria.net.xml"/>
        <route-files value="Route 1/blumentritt-divisoria.trips.xml"/>
    </input>

    <output>
        <output-file value="Route 1/blumentritt-divisoria.route.xml"/>
    </output>

    <report>
        <ignore-errors value="true"/>
    </report>

</configuration>
-->

<routes xmlns:xsi="http://www.w3.org/2001/XMLSchema-instance" xsi:noNamespaceSchemaLocation="http://sumo.dlr.de/xsd/routes_file.xsd">
    <vehicle id="0" depart="0.00">
        <route edges="179949246#2 -179949834#1 179949254#3 1078950984#1 -150158675#2 -150158675#0 -150158674 -121510091 -6117994#11 -6117994#10 -7716744#11 -7716744#10 -7716744#9 -7716744#8 -7716744#7 -7716744#5 -121510092#5 -121510092#4 -121510092#3 -121510092#2 -121510092#1 -121510092#0"/>
    </vehicle>
    <vehicle id="1" depart="1.00">
        <route edges="-634092848#0 634092848#0 634092848#1 1079361851#1 1079361851#2 1079361851#3 1079361851#4 1079361851#5 1073944251#0 1073944251#1 1073944251#2 1073944251#3 1073944251#4 934323187 934323181 150157983#0 150157983#1 150157983#2 150157983#3 150157983#4 150157983#5 150157983#6 150157983#7 150157983#8 945371221 1222145870 934385910#0 934385910#1 806249273#1 806249273#2 806249273#3 806249273#4 945360968 945360964 771810582#0 771810582#1 771810582#2 771810582#3 771810582#4 945360965 945359163 688086625 -923286000 -923286002 -923285995 -121510093#3 -121510093#2 -121510093#1 -121510093#0 -150158643 -150158644#2 -150158644#1 -150158644#0 22749793#3 1078950984#0 -179949254#3 -179949834#0 -589810678"/>
    </vehicle>
    <vehicle id="2" depart="2.00">
        <route edges="604087758#1 604087758#2 -604087758#2 -604087758#1 934385907 945368521 945368520 945371222 945376815 -825090419#1 -825090419#0 -16267402#1 -16267402#0 -833362289 -183693223#3 183693221 183693224#1 183693224#2 183693224#3"/>
    </vehicle>
    <vehicle id="3" depart="3.00">
        <route edges="806249276 634092852#0 634092852#1 934323188#1 1079361851#0 1079361851#1 1079361851#2 1079361851#3 1079361851#4 1079361851#5 1073944251#0 1073944251#1 1073944251#2 1073944251#3 1073944251#4 934323187 934323181 150157983#0 150157983#1 150157983#2 150157983#3 150157983#4 150157983#5 150157983#6 150157983#7 150157983#8 945371221 1222145870 934385910#0 934385910#1 806249273#1 806249273#2 806249273#3 806249273#4 945360968 6117994#0 6117994#1 6117994#2 6117994#4 6117994#5 6117994#6 6117994#8 6117994#9 6117994#10 6117994#11 121510091 150158674 150158675#0 -150158675#0"/>
    </vehicle>
    <vehicle id="4" depart="4.00">
        <route edges="1078950984#1 -150158675#2 -150158675#0 -150158674 -121510091 -6117994#11 -6117994#10 -7716744#11 -7716744#10 -7716744#9 -7716744#8 -7716744#7 -7716744#5 -121510092#5"/>
    </vehicle>
    <vehicle id="5" depart="5.00">
        <route edges="-23769625#1 -22750989#3 -22750989#2 22750976#2 22750976#3 -1067729851#1 -1067729851#0 -1155094091 150158654#2 150158653 150158652#0 150158652#1"/>
    </vehicle>
    <vehicle id="6" depart="6.00">
        <route edges="-121510090#0 945359167 945359162 945360966 771810580#0 771810580#1 771810580#2 945360963 945360967 806249272#0 806249272#1 934385907 945368521 945368520 945371222 945376815 934323184#0 934323184#1 934323184#2 934323184#3 934323182 -604090287#4 -604090287#3 -604090287#2 -604090287#1 -604090287#0 -604090261 -604090262#1 22750991#1 22750992 -22750992"/>
    </vehicle>
    <vehicle id="7" depart="7.00">
        <route edges="179949260#5 179949260#6 179949260#7 179949260#9 179949260#11 -14096536#2 -14096536#1 -14096536#0 22749793#3 1078950984#0 1078950984#1 -150158675#2 -150158675#0 -150158674 -121510091 121510091 150158674 150158675#0"/>
    </vehicle>
    <vehicle id="8" depart="8.00">
        <route edges="-250480482#1 -250480482#0 -54615786#4 -54615786#3 -54615786#2 -54615786#1 -54615786#0 -885766558 -833362295 795519365#0 795519365#1 795519364#0 833362294#1 421750121#0 421750121#1 421750121#2 1078950978#0 1078950978#1 805899331#0 -182922859#0 161414121#3"/>
    </vehicle>
    <vehicle id="9" depart="9.00">
        <route edges="690399034#1 690399034#2 690399034#3 -14096536#2 -14096536#1 -14096536#0 22749793#3 1078950983#0 1078950983#1 -1078950983#1"/>
    </vehicle>
    <vehicle id="10" depart="10.00">
        <route edges="688086627#0 688086627#2 688086627#4 945356764#0 945356764#1 945356763 945356759 945359168 800589208 945359165 945359167 945359162 945360966 771810580#0 771810580#1 771810580#2 945360963 945360967 806249272#0 806249272#1 934385907 945368521 945368520 945371222 945376815 934323184#0 934323184#1 934323184#2 934323184#3 934323182 -604090287#4 -604090287#3 -604090287#2 -604090287#1 -604090287#0 -604090261 -604090262#1 22750991#1 22750992"/>
    </vehicle>
    <vehicle id="11" depart="11.00">
        <route edges="-840378992#1 -840378992#0 840378992#0 840378992#1 1079361851#0 1079361851#1 1079361851#2 1079361851#3 1079361851#4 1079361851#5 1073944251#0 1073944251#1 1073944251#2 1073944251#3 1073944251#4 934323187 934323181 150157983#0 150157983#1 150157983#2 150157983#3 150157983#4 150157983#5 150157983#6 150157983#7 150157983#8 945371221 1222145870 934385910#0 934385910#1 806249273#1 806249273#2 806249273#3 806249273#4 945360968 945360964 771810582#0 771810582#1 771810582#2 771810582#3 771810582#4 945360965 945359163 688086625 -923286000 -923286002 -923285995 -121510093#3 -121510093#2 -121510093#1 -121510093#0 -150158643 -150158644#2 -150158644#1 -150158644#0 14096536#0 14096536#1 14096536#2 -179949260#11 -179949260#9 -179949260#7 -179949260#6 -179949260#5"/>
    </vehicle>
    <vehicle id="12" depart="12.00">
        <route edges="934352635#1 161271156#0 161271156#1 -161271168#2 -161271168#1 -901394420#1 -901394420#0"/>
    </vehicle>
    <vehicle id="13" depart="13.00">
        <route edges="-150158675#0 -150158674 -121510091 121510091 150158674 150158675#0 150158675#2 795519365#0 795519365#1 795519364#0 833362294#1 421750121#0 421750121#1 421750121#2 1078950978#0 1078950978#1 934352637#0 1092319549 161004991#0 161004991#1 161271176#0 161271176#1 1276256175 -161271158#2 -161271158#1 -161271158#0"/>
    </vehicle>
    <vehicle id="14" depart="14.00">
        <route edges="771810580#0 771810580#1 771810580#2 945360963 945360967 806249272#0 806249272#1 934385907 945368521 945368520 945371222 945376815 934323184#0 934323184#1 934323184#2 934323184#3 934323182 934323183 1073944252#0 1073944252#1 1073944252#2 1073944252#3 1073944252#4 150157986#0 150157986#1 150157986#2 150157986#3 150157986#4 150157986#5 1079361849#0 9137588#0 9137588#1 634092842#0 634092842#1 16354607#0"/>
    </vehicle>
    <vehicle id="15" depart="15.00">
        <route edges="688086627#2 688086627#4 945356764#0 945356764#1 945356763 945356759 945359168 800589208 945359165 -923286000 -923286002 -923285995 -121510093#3 -121510093#2 -121510093#1 -121510093#0 -150158643 -150158644#2 -150158644#1 -150158644#0 22749793#3 1078950984#0 1078950984#1 795519365#0 795519365#1 795519364#0 833362294#1 421750121#0 421750121#1 421750121#2 1078950978#0 1078950978#1 934352637#0 1092319549 949910502#0 949910502#1 161271212 601226034"/>
    </vehicle>
    <vehicle id="16" depart="16.00">
        <route edges="150158666#0 150158666#1 634092848#0 634092848#1 1079361851#1 1079361851#2 1079361851#3 1079361851#4 1079361851#5 1073944251#0 1073944251#1 1073944251#2 1073944251#3 1073944251#4 934323187 934323181 150157983#0 150157983#1 150157983#2 150157983#3 150157983#4 150157983#5 150157983#6 150157983#7 150157983#8 945371221 1222145870 934385910#0 934385910#1 806249273#1 806249273#2 806249273#3 806249273#4 945360968 945360964 771810582#0 771810582#1 771810582#2 771810582#3 771810582#4 945360965 945359163 688086625 945359161 945359164 945356758 945356759 945359168 800589208 945359165"/>
    </vehicle>
    <vehicle id="17" depart="17.00">
        <route edges="-947926952#7 150158642#8 150158642#9 150158638 150158639#0 150158639#1 604090262#1 604090261 604090287#0 604090287#1 604090287#2 150158678#0 150158678#1 150158678#2"/>
    </vehicle>
    <vehicle id="18" depart="18.00">
        <route edges="7716734#2 7716734#3 7716734#4 7716734#5 7716734#6 7716734#7 7716734#8 7716734#9 6117994#8 6117994#9 6117994#10 6117994#11 121510091 150158674 150158675#0 -22750976#3 -22750976#2 22750989#2 23769622#1 164692682#2"/>
    </vehicle>
    <vehicle id="19" depart="19.00">
        <route edges="795517385#2 795517385#3 795517385#4 -604090287#2 -604090287#1 -604090287#0 -604090261 -604090262#1 150158661#0 150158661#1 150158661#2 150158661#3 150158661#7 825090408#0 825090408#1 161271167#0 161271167#1 161271167#2 161271167#3 161271167#4 161271167#5 161271167#6"/>
    </vehicle>
    <vehicle id="20" depart="20.00">
        <route edges="23769617#3 -1078950983#1 -1078950983#0 1078950982#0 14096536#0 167794148#0 167794148#1 167794148#2 -773039554#2 -773039554#1 -773039554#0 -179949239#3 -179949239#2 -179949239#1 -179949239#0 -14096536#4 -14096536#3"/>
    </vehicle>
    <vehicle id="21" depart="21.00">
        <route edges="-54615786#4 -54615786#3 -54615786#2 -54615786#1 -54615786#0 -885766558 -833362295 -150158675#2 -150158675#0 -150158674 -121510091 -6117994#11 -6117994#10 -6117994#9 -6117994#8 -7716734#9 -7716734#8"/>
    </vehicle>
    <vehicle id="22" depart="22.00">
        <route edges="-150158661#2 -150158661#1 -150158661#0 604090262#1 604090261 604090287#0 604090287#1 604090287#2 150158678#0 150158678#1 150158678#2 150158678#3 150158678#4 150158678#5 1123113156#0 1123113156#1 1123113156#2 1123113156#3 1123113156#4 634092847#1 -947926953#1 -947926953#0 -604090266#1"/>
    </vehicle>
    <vehicle id="23" depart="23.00">
        <route edges="-16077781#2 -16077781#1 -16077781#0 6118170#0 6118170#1 -833362295 -150158675#2 -150158675#0 -150158674 -121510091 -6117994#11 -6117994#10 -6117994#9 -6117994#8 -6117994#6 -6117994#5 -6117994#4 -7716720#6"/>
    </vehicle>
    <vehicle id="24" depart="24.00">
        <route edges="179949239#3 773039554#0 773039554#1 773039554#2 -167794148#2 -167794148#1 -167794148#0 -14096536#0 22749793#3 1078950984#0 1078950984#1 795519365#0 795519365#1 795519364#0 833362294#1 150158642#0 150158642#2 150158642#3 150158642#4 150158642#5 150158642#6 150158642#7 -947926952#6"/>
    </vehicle>
    <vehicle id="25" depart="25.00">
        <route edges="-923286003 -923285995 -121510093#3 -121510093#2 -121510093#1 -121510093#0 -150158643 -150158644#2 -150158644#1 -150158644#0 22749793#3 1078950983#0 1078950983#1 833696206#0 833696206#1 833696205#0 833696205#1 -369833371#1 -369833371#0 -250480482#1"/>
    </vehicle>
    <vehicle id="26" depart="26.00">
        <route edges="-6117994#9 -6117994#8 -7716734#9 -7716734#8 -7716734#7 -7716734#6 -7716734#5 -7716734#4 -7716734#3 -7716734#2 -7716734#1 -7716734#0 9162016#5"/>
    </vehicle>
    <vehicle id="27" depart="27.00">
        <route edges="179949260#3 179949260#4 179949260#5 179949260#6 179949260#7 179949260#9 179949260#11 -14096536#2 -14096536#1 -14096536#0 150158644#0 150158644#1 150158644#2 150158643 121510093#0 7716744#2 164688694#0 164688694#1 164688695#0"/>
    </vehicle>
    <vehicle id="28" depart="28.00">
        <route edges="-179949829 369833371#1 -833696205#1 -833696205#0 -833696206#1 -833696206#0 -1078950983#1 23769620#0 589810678"/>
    </vehicle>
    <vehicle id="29" depart="29.00">
        <route edges="-179949260#5 -179949260#4 -179949260#3 -179949260#2 773039554#1 773039554#2 -167794148#2 -167794148#1 -167794148#0 -14096536#0 150158644#0 150158637#2 1155094091 1067729851#0"/>
    </vehicle>
    <vehicle id="30" depart="30.00">
        <route edges="945397248 945397246 934323188#0 934323188#1 1079361851#0 1079361851#1 1079361851#2 1079361851#3 1079361851#4 1079361851#5 1073944251#0 1073944251#1 1073944251#2 1073944251#3 1073944251#4 934323187 934323181 150157983#0 150157983#1 150157983#2 150157983#3 150157983#4 150157983#5 150157983#6 150157983#7 150157983#8 945371221 1222145870 934385910#0 934385910#1 806249273#1 806249273#2 806249273#3 806249273#4 945360968 945360964 771810582#0 771810582#1 771810582#2 771810582#3 771810582#4 945360965 945359163 688086625 -923286000 -923286002 -923285995 -121510093#3 -121510093#2 -121510093#1 -121510093#0 -150158643 -150158644#2 -150158644#1 -150158644#0 14096536#0 167794148#0 167794148#1 167794148#2 167794148#3 -179949260#0 179949260#0"/>
    </vehicle>
    <vehicle id="31" depart="31.00">
        <route edges="150158678#2 150158678#3 150158678#4 150158678#5 1123113157#0 1123113157#1 1073944251#0 1073944251#1 1073944251#2 1073944251#3 1073944251#4 934323187 934323181 150157983#0 150157983#1 150157983#2 150157983#3 150157983#4 150157983#5 150157983#6 150157983#7 150157983#8 1073913521 604087743#0 833362288 604087744 795519370 825090410#0 22750976#0"/>
    </vehicle>
    <vehicle id="32" depart="32.00">
        <route edges="7716744#4 -121510092#5 -121510092#4 -121510092#3 -121510092#2 -121510092#1 -121510092#0 771810580#1 771810580#2 945360963 6117994#0 6117994#1 6117994#2"/>
    </vehicle>
    <vehicle id="33" depart="33.00">
        <route edges="-554806924#0 -833696205#1 -833696205#0 -833696206#1 -833696206#0 -1078950983#1 -1078950983#0 1078950982#0 150158644#0 150158644#1 150158644#2 150158643 121510093#0 121510093#1 121510093#2 -121510093#2"/>
    </vehicle>
    <vehicle id="34" depart="34.00">
        <route edges="-795517386#1 -795517386#0 604090287#1 604090287#2 604090287#3 604090287#4 934323181 150157983#0 150157983#1 150157983#2 150157983#3 150157983#4 150157983#5 150157983#6 150157983#7 150157983#8 945371221 1222145870 934385910#0 934385910#1 806249273#1 806249273#2 806249273#3 806249273#4 945360968 945360964 771810582#0 771810582#1 771810582#2 771810582#3 771810582#4 945360965 945359163 688086625 -923286000 -923286002 -923285995 -121510093#3 -121510093#2 -121510093#1 -121510093#0 -150158643 -150158644#2 -150158644#1 -150158644#0 14096536#0 14096536#1 14096536#2 -690399034#3 -690399034#2"/>
    </vehicle>
    <vehicle id="35" depart="35.00">
        <route edges="-23769617#1 -23769617#0 -885766558 -833362295 421750122 1078950982#0 150158644#0 150158644#1 150158644#2 150158643 121510093#0 121510093#1 121510093#2 -7716734#1 150158659#3 150158659#4 923286001"/>
    </vehicle>
    <vehicle id="36" depart="36.00">
        <route edges="800184254#1 619827328#0 619827328#1 619827328#2 934352635#1 161271156#0 161271156#1 -161271168#2 -161271168#1 -161271168#0 806655758#0 806655758#1 806655757 806655756 -806655756 -806655757 -806655758#1 -806655758#0"/>
    </vehicle>
    <vehicle id="37" depart="37.00">
        <route edges="179949819 -179949833#1 -179949833#0 179949828 -179949839#2 -179949839#1 -179949839#0 -179949814#0 23769617#3 -1078950983#1 -1078950983#0 1078950984#0 1078950984#1 795519365#0 795519365#1 795519364#0 833362294#1 1073965702#0 1073965702#1"/>
    </vehicle>
    <vehicle id="38" depart="38.00">
        <route edges="840378994#0 840378994#1 -840378994#1 -840378994#0 800589209#1 800589209#3 800589209#4 688086627#2 688086627#4 945356764#0 945356764#1 945356763 945356759 945359168 800589208 945359165 945359167 945359162 945360966 771810580#0 121510092#0 121510092#1 121510092#2 121510092#3 121510092#4 121510092#5 121510094#0 121510094#1 121510094#2 121510094#3"/>
    </vehicle>
    <vehicle id="39" depart="39.00">
        <route edges="-6117994#5 -6117994#4 -6117994#2 -6117994#1 -6117994#0 945360967 806249272#0 806249272#1 934385907 945368521 945368520 945371222 945376815 -604090294#1"/>
    </vehicle>
    <vehicle id="40" depart="40.00">
        <route edges="150158680#2 859916983 859916982#0 859916982#1 945356759 945359168 800589208 945359165 945359167 945359162 945360966 771810580#0 771810580#1 771810580#2 945360963 945360967 806249272#0 806249272#1 934385907 945368521 945368520 945371222 945376815 934323184#0 934323184#1 934323184#2 934323184#3 934323182 934323183 1073944252#0 1073944252#1 1073944252#2 1073944252#3 1073944252#4 150157986#0 150157986#1 150157986#2 150157986#3 150157986#4 -634092848#1 -634092848#0"/>
    </vehicle>
    <vehicle id="41" depart="41.00">
        <route edges="161271167#7 161271167#8 161271129 103504798#2 103504798#3 103504798#4 103504798#5 103504798#6 103504798#8 -825090408#1 -825090408#0 -150158661#7 -150158661#3 -150158661#2 -150158661#1 -150158661#0 604090262#1 604090261 604090287#0 604090287#1 604090287#2 604090287#3 604090287#4 934323181 150157983#0 150157983#1 150157983#2 150157983#3 150157983#4 150157983#5 150157983#6 150157983#7 150157983#8 945371221 1222145870 934385910#0 934385910#1 806249273#1 806249273#2 806249273#3 806249273#4 945360968 945360964 771810582#0 771810582#1 771810582#2 771810582#3 771810582#4 945360965 945359163 688086625 945359161 945359164 945356758 945356760 945356761#0 800589209#1 800589209#3 800589209#4 833362326 833362240#0"/>
    </vehicle>
    <vehicle id="42" depart="42.00">
        <route edges="1073944251#2 1073944251#3 1073944251#4 934323187 934323181 150157983#0 150157983#1 150157983#2 150157983#3 150157983#4 150157983#5 150157983#6 150157983#7 150157983#8 945371221 1222145870 934385910#0 934385910#1 806249273#1 806249273#2 806249273#3 806249273#4 945360968 6117994#0 6117994#1 6117994#2 6117994#4 6117994#5 6117994#6 6117994#8 6117994#9 6117994#10 6117994#11 121510091 150158674 150158675#0 150158675#2 833362295 885766558 54615786#0 54615786#1 54615786#2 54615786#3 54615786#4 250480482#0 250480482#1 369833371#0 369833371#1 554806924#0 554806924#1 554806924#2 554806924#3 554806924#4 -554806924#4 -554806924#3 -554806924#2 -554806924#1 -554806924#0"/>
    </vehicle>
    <vehicle id="43" depart="43.00">
        <route edges="947926953#1 840378992#0 840378992#1 1079361851#0 1079361851#1 1079361851#2 1079361851#3 1079361851#4 1079361851#5 1073944251#0 1073944251#1 1073944251#2 1073944251#3 1073944251#4 934323187 934323181 150157983#0 150157983#1 150157983#2 150157983#3 150157983#4 150157983#5 150157983#6 150157983#7 150157983#8 945371221 1222145870 934385910#0 934385910#1 806249273#1 806249273#2 806249273#3 806249273#4 945360968 6117994#0 6117994#1 6117994#2 6117994#4 6117994#5 6117994#6 6117994#8 6117994#9 6117994#10 6117994#11 121510091 150158674 150158675#0 150158675#2 421750122 150158654#0"/>
    </vehicle>
    <vehicle id="44" depart="44.00">
        <route edges="-150158673#1 -150158673#0 1073944251#0 1073944251#1 1073944251#2 1073944251#3 1073944251#4 934323187 934323181 150157983#0 150157983#1 150157983#2 150157983#3 150157983#4 150157983#5 150157983#6 150157983#7 150157983#8 945371221 1222145870 934385910#0 934385910#1 806249273#1 806249273#2 806249273#3 806249273#4 945360968 945360964 771810582#0 771810582#1 771810582#2 771810582#3 771810582#4 945360965 945359163 688086625 -923286000 -923286002 -923285995 -121510093#3 -121510093#2 -121510093#1 -121510093#0 -150158643 -150158644#2 -150158644#1 -150158637#1 -150158637#0"/>
    </vehicle>
    <vehicle id="45" depart="45.00">
        <route edges="-161271176#0 223373124#0 161271116 805899330#0 805899330#1 161271156#0 161271156#1 1078950981#0 1078950981#1 1078950981#2 1073965702#0 1073965702#1 1073965702#2 1073965702#3 795519366#0 795519367#1 704472173 421750122 1078950982#0 14096536#0 14096536#1 14096536#2 14096536#3 14096536#4 179949239#0"/>
    </vehicle>
    <vehicle id="46" depart="46.00">
        <route edges="634092844#10 604090287#1 604090287#2 604090287#3 604090287#4 934323183 1073944252#0 1073944252#1 1073944252#2 1073944252#3 1073944252#4 150157986#0 150157986#1 150157986#2 150157986#3 150157986#4 1079361851#1 1079361851#2 1079361851#3 1079361851#4 1079361851#5"/>
    </vehicle>
    <vehicle id="47" depart="47.00">
        <route edges="-150158652#2 -164688695#0 1067729852"/>
    </vehicle>
    <vehicle id="48" depart="48.00">
        <route edges="947926952#6 150158642#8 150158642#9 150158638 150158639#0 150158639#1 150158661#0 150158661#1 150158661#2 150158661#3 150158661#7 150158663 150158664#0 150158664#1 1078585569 1079360492 150158662 150158666#0"/>
    </vehicle>
    <vehicle id="49" depart="49.00">
        <route edges="945359162 945360966 771810580#0 771810580#1 771810580#2 945360963 945360967 806249272#0 806249272#1 934385907 945368521 945368520 945371222 945376815 934323184#0 934323184#1 934323184#2 934323184#3 934323182 -604090287#4 -604090287#3 -604090287#2 -604090287#1 795517386#0"/>
    </vehicle>
    <vehicle id="50" depart="50.00">
        <route edges="-1092319549 934352635#1 161271156#0 161271156#1 1078950981#0 1078950981#1 1078950981#2 1073965702#0 1073965702#1 1073965702#2 1073965702#3 795519366#0 795519367#1 704472173 833362295 885766558 54615786#0 54615786#1"/>
    </vehicle>
    <vehicle id="51" depart="51.00">
        <route edges="223373124#0 161271116 805899330#0 805899330#1 161271156#0 161271156#1 1078950981#0 1078950981#1 1078950981#2 150158642#0 150158642#2 150158642#3 150158642#4 150158642#5 150158642#6 150158667 183542023 183542024 150158663 150158664#0 150158664#1 1078585569 1079360492 150158662 150158666#0 150158666#1 634092847#1 840378992#0 840378992#1 1079361850#0 1079361850#1 150158669#2"/>
    </vehicle>
    <vehicle id="52" depart="52.00">
        <route edges="-6117994#8 -7716734#9 -7716734#8 -7716734#7 -7716734#6 -7716734#5 -7716734#4 -7716734#3 -7716734#2 -121510093#2 -121510093#1 -121510093#0 -150158643 -150158644#2 -150158644#1 -150158644#0 14096536#0 167794148#0 167794148#1 167794148#2 167794148#3 179949260#1"/>
    </vehicle>
    <vehicle id="53" depart="53.00">
        <route edges="-161271212 -949910502#1 -949910502#0 -1092319549 934352635#1 161271156#0 161271156#1 1127952089#0 1127952089#2 1127952089#3 1127952089#4"/>
    </vehicle>
    <vehicle id="54" depart="54.00">
        <route edges="121510092#0 121510092#1 -121510092#1 -121510092#0 771810580#1 771810580#2 945360963 945360967 806249272#0 806249272#1 934385907 945368521 945368520 945371222 945376815 934323184#0 934323184#1 934323184#2 934323184#3 934323182 934323183 1073944252#0 1073944252#1 1073944252#2 1073944252#3 1073944252#4 1073944251#0 1073944251#1 1073944251#2 1073944251#3 1073944251#4 934323187"/>
    </vehicle>
    <vehicle id="55" depart="55.00">
        <route edges="800184254#0 800184254#1 619827328#0 619827328#1 619827328#2 934352635#1 161271156#0 161271156#1 1078950981#0 1078950981#1 1078950981#2 150158642#0 150158642#2 150158642#3 150158642#4 150158642#5 150158642#6 150158642#7 150158642#8 150158642#9 150158638 150158639#0 150158639#1 604090262#1 604090261 604090287#0 604090287#1 604090287#2 604090287#3 604090287#4 934323183 1073944252#0 1073944252#1 1073944252#2 1073944252#3 1073944252#4 150157986#0 150157986#1 150157986#2 150157986#3 150157986#4 -634092848#1"/>
    </vehicle>
    <vehicle id="56" depart="56.00">
        <route edges="150158642#3 150158642#4 150158642#5 150158642#6 150158642#7 150158642#8 150158642#9 150158638 150158639#0 -22750992 22750991#2 -183693223#3"/>
    </vehicle>
    <vehicle id="57" depart="57.00">
        <route edges="840378992#0 840378992#1 1079361851#0 1079361851#1 1079361851#2 1079361851#3 1079361851#4 1079361851#5 1073944251#0 1073944251#1 1073944251#2 1073944251#3 1073944251#4 934323187 934323181 150157983#0 150157983#1 150157983#2 150157983#3 150157983#4 150157983#5 150157983#6 150157983#7 150157983#8 1073913521 604087743#0 833362288 604087744 795519370"/>
    </vehicle>
    <vehicle id="58" depart="58.00">
        <route edges="-7716734#7 -7716734#6 -7716734#5 -7716734#4 121510092#4 121510092#5 121510094#0 121510094#1 121510094#2 164692675 -150158652#0 -150158653 -150158654#2 -150158654#1 -150158654#0 1078950984#0 -179949254#3 179949254#3"/>
    </vehicle>
    <vehicle id="59" depart="59.00">
        <route edges="16268341#4 -16268341#4 -16268341#3 161414121#2 161414121#3 934352635#1 161271156#0 161271156#1 1078950981#0 1078950981#1 1078950981#2 1073965702#0 1073965702#1 1073965702#2 1073965702#3 795519366#0 795519367#1 704472173 421750122 1078950982#0 14096536#0 14096536#1 14096536#2 -179949260#11 -179949260#9 -179949260#7 -179949260#6 -179949260#5 -179949260#4 -179949260#3 -179949260#2"/>
    </vehicle>
    <vehicle id="60" depart="60.00">
        <route edges="604090289#0 604090289#1 604090294#0 604090294#1 934323184#0 934323184#1 934323184#2 934323184#3 934323182 934323183 1073944252#0 1073944252#1 1073944252#2 1073944252#3 1073944252#4 150157986#0 150157986#1 150157986#2 150157986#3 150157986#4 150158668#0 150158668#1 150158669#3 150158669#4 150158669#5"/>
    </vehicle>
    <vehicle id="61" depart="61.00">
        <route edges="6117994#8 6117994#9 -6117994#9 -6117994#8 -6117994#6 -6117994#5 -6117994#4 -6117994#2 -6117994#1 -6117994#0 945360967 806249272#0 806249272#1 934385907 945368521 945368520 945371222 945376815 934323184#0 934323184#1 934323184#2 934323184#3 934323182 934323183 1073944252#0 1073944252#1 1073944252#2 1073944252#3 1073944252#4 150157986#0 150157986#1 150157986#2 150157986#3 150157986#4 -634092848#1 -634092848#0 -150158666#1 -150158666#0 150158666#0 150158666#1"/>
    </vehicle>
    <vehicle id="62" depart="62.00">
        <route edges="-1067729851#0 -1155094091 -150158637#2 150158644#1 150158644#2 150158643 121510093#0 121510093#1 121510093#2 -7716734#1 150158659#3 150158659#4 -859916983 -150158680#2 -150158680#0 -833362326"/>
    </vehicle>
    <vehicle id="63" depart="63.00">
        <route edges="-1127952091 -369833371#1 -369833371#0 -250480482#1 -250480482#0 -54615786#4 -54615786#3 -54615786#2 -54615786#1 -54615786#0 -885766558 -833362295 -150158675#2 -22750976#3 -22750976#2 -22750976#1 -22750976#0 9137790"/>
    </vehicle>
    <vehicle id="64" depart="64.00">
        <route edges="800589209#1 800589209#3 800589209#4 688086627#2 688086627#4 945356764#0 945356764#1 945356763 945356759 945359168 800589208 945359165 945359167 945359162 945360966 771810580#0 121510092#0 121510092#1 121510092#2 121510092#3 7716734#4 7716734#5 7716734#6 7716734#7 7716734#8"/>
    </vehicle>
    <vehicle id="65" depart="65.00">
        <route edges="-7716744#5 121510094#0 -164688696#1 -150158652#2"/>
    </vehicle>
    <vehicle id="66" depart="66.00">
        <route edges="800589209#1 800589209#3 800589209#4 688086627#2 688086627#4 945356764#0 945356764#1 945356763 945356759 945359168 800589208 945359165 945359167 945359162 945360966 771810580#0 771810580#1 771810580#2 945360963 945360967 806249272#0 806249272#1 934385907 945368521 945368520 945371222 945376815 934323184#0 934323184#1 934323184#2 934323184#3 934323182 934323181"/>
    </vehicle>
    <vehicle id="67" depart="67.00">
        <route edges="-150158668#0 1079361851#1 1079361851#2 1079361851#3 1079361851#4 1079361851#5 1073944251#0 1073944251#1 1073944251#2 1073944251#3 1073944251#4 934323187 934323181 150157983#0 150157983#1 150157983#2 150157983#3 150157983#4 150157983#5 150157983#6 150157983#7 150157983#8 945371221 1222145870 934385910#0 934385910#1 806249273#1 806249273#2 806249273#3 806249273#4 945360968 945360964 771810582#0 771810582#1 771810582#2 771810582#3 771810582#4 945360965 945359163 688086625 -923286000 -923286002 -923285995 -121510093#3 -121510093#2 -121510093#1 -121510093#0 -150158643 -150158644#2 -150158644#1 -150158637#1 -150158637#0 150158637#0 150158637#1"/>
    </vehicle>
    <vehicle id="68" depart="68.00">
        <route edges="-150158657#0 150158657#0 150158657#1 150158658 150158659#0 7716744#1 121510093#1 121510093#2 121510093#3 923285995 923286002 923286000 945359167 945359162 945360966 771810580#0 771810580#1 771810580#2 945360963 945360967 806249272#0 806249272#1 934385907 945368521 945368520 945371222 945376815 934323184#0 934323184#1 934323184#2 934323184#3 934323182 -604090287#4 -604090287#3 604090287#3"/>
    </vehicle>
    <vehicle id="69" depart="69.00">
        <route edges="604090293#1 604090293#2 604090293#3 604090293#4 604087746#0 604087746#1 1073913521 604087743#0 833362288 604087744 795519370 -947926952#5 -164692682#4 -164692682#3 -164692682#2 -164692682#1 -164692682#0"/>
    </vehicle>
    <vehicle id="70" depart="70.00">
        <route edges="14096536#3 14096536#4 179949239#0 179949239#1 179949239#2 179949239#3 773039554#0 773039554#1 773039554#2 -167794148#2 -167794148#1 -167794148#0 -14096536#0 150158644#0 150158644#1 150158644#2 150158643 121510093#0 121510093#1 121510093#2 121510093#3 923285995 923286002 923286000 945359167 945359162 945360966 771810580#0 771810580#1 771810580#2 945360963 945360967 806249272#0 806249272#1 934385907 945368521 945368520 945371222 945376815 934323184#0 934323184#1 934323184#2 934323184#3 934323182 -604090287#4 -604090287#3 150158678#0"/>
    </vehicle>
    <vehicle id="71" depart="71.00">
        <route edges="-6117994#6 -6117994#5 -6117994#4 6117994#4 6117994#5 6117994#6 6117994#8 6117994#9 6117994#10 6117994#11 121510091 150158674 150158675#0 150158675#2 795519365#0 795519365#1 795519364#0 833362294#1 421750121#0 421750121#1 421750121#2 1078950978#0 1078950978#1 934352637#0 934352636#1 934352636#2 800184254#0 800184254#1"/>
    </vehicle>
    <vehicle id="72" depart="72.00">
        <route edges="1079361849#0 934323188#1 1079361851#0 1079361851#1 1079361851#2 1079361851#3 1079361851#4 1079361851#5 1073944251#0 1073944251#1 1073944251#2 1073944251#3 1073944251#4 934323187 934323181 150157983#0 150157983#1 150157983#2 150157983#3 150157983#4 150157983#5 150157983#6 150157983#7 150157983#8 945371221 1222145870 934385910#0 934385910#1 806249273#1 806249273#2 806249273#3 806249273#4 945360968 6117994#0 6117994#1 6117994#2 6117994#4 6117994#5 6117994#6 6117994#8 6117994#9 6117994#10 6117994#11 -30679054"/>
    </vehicle>
    <vehicle id="73" depart="73.00">