<?xml version="1.0" encoding="UTF-8"?>

<configuration xmlns:xsi="http://www.w3.org/2001/XMLSchema-instance" xsi:noNamespaceSchemaLocation="http://sumo.dlr.de/xsd/sumoConfiguration.xsd">

    <input>
        <net-file value="../intersection.net.xml"/>
        <route-files value="../person_routes/intersection_flows.rou.xml, ../vehicle_routes/poisson3.rou.xml"/>      
        <additional-files value="../jeepTypes-intersection.xml, ../genericVehicle.xml"/>
    </input>
	
	<time>
        <begin value="0"/>
        <end value="7200"/>
        <lateral-resolution value="0.2"/>
    </time>

</configuration>