<?xml version="1.0" encoding="UTF-8"?>

<configuration xmlns:xsi="http://www.w3.org/2001/XMLSchema-instance" xsi:noNamespaceSchemaLocation="http://sumo.dlr.de/xsd/sumoConfiguration.xsd">

    <input>

        <net-file value="../edited.net.xml"/>
        <route-files value="../person_routes/person_flows4-6.rou.xml, ../vehicle_routes/jeepney_routes.rou.xml, ../vehicle_routes/randomTrips_bicycle3.rou.xml, ../vehicle_routes/randomTrips_bus3.rou.xml, ../vehicle_routes/randomTrips_car3.rou.xml, ../vehicle_routes/randomTrips_motorcycle3.rou.xml, ../vehicle_routes/randomTrips_truck3.rou.xml"/>
       
        <additional-files value="../jeepTypes.xml"/>
    </input>
	<lateral-resolution value="0.2"/>
	<time>
        <begin value="0"/>
        <end value="7200"/>
   
    </time>

</configuration>