<?xml version="1.0" encoding="UTF-8"?>

<!-- generated on 2024-05-30 19:01:51.969607 by randomTrips.py v1_19_0+0000-baa66a0f364
<configuration>
    <net-file value="fullroute.net.xml"/>
    <output-trip-file value="sample.trips.xml"/>
    <end value="1000.0"/>
</configuration>
-->

<routes xmlns:xsi="http://www.w3.org/2001/XMLSchema-instance" xsi:noNamespaceSchemaLocation="http://sumo.dlr.de/xsd/routes_file.xsd">
    <trip id="0" depart="0.00" from="23784738#2" to="-10853062#3"/>
    <trip id="1" depart="1.00" from="-548314354" to="-29377703#3"/>
    <trip id="2" depart="2.00" from="332100657#6" to="27323187#3"/>
    <trip id="3" depart="3.00" from="806249277#2" to="-154837034#2"/>
    <trip id="4" depart="4.00" from="107396684#1" to="-1111947800#0"/>
    <trip id="5" depart="5.00" from="-29169513#1" to="137055699#3"/>
    <trip id="6" depart="6.00" from="-10853062#2" to="-27276538#5"/>
    <trip id="7" depart="7.00" from="24164733" to="15785466"/>
    <trip id="8" depart="8.00" from="-29170628#0" to="176435844#6"/>
    <trip id="9" depart="9.00" from="592221046#1" to="-1067761767#2"/>
    <trip id="10" depart="10.00" from="575729108#3" to="29169527#0"/>
    <trip id="11" depart="11.00" from="-8598773#3" to="-22751222#1"/>
    <trip id="12" depart="12.00" from="904980039#1" to="-8652887#2"/>
    <trip id="13" depart="13.00" from="-154837043" to="-15785439#1"/>
    <trip id="14" depart="14.00" from="697708631" to="183689345#0"/>
    <trip id="15" depart="15.00" from="583421939" to="32527595#7"/>
    <trip id="16" depart="16.00" from="156307521#0" to="923261417#1"/>
    <trip id="17" depart="17.00" from="-9495769#0" to="15833850#5"/>
    <trip id="18" depart="18.00" from="643170219" to="22694403"/>
    <trip id="19" depart="19.00" from="741799316#1" to="161754854#2"/>
    <trip id="20" depart="20.00" from="29254951#0" to="-12254923#3"/>
    <trip id="21" depart="21.00" from="-29378777#0" to="-643170217#1"/>
    <trip id="22" depart="22.00" from="-150158651#3" to="-303412430"/>
    <trip id="23" depart="23.00" from="-15785441#2" to="-573429038#0"/>
    <trip id="24" depart="24.00" from="23296582#4" to="-917970208"/>
    <trip id="25" depart="25.00" from="-91845515" to="-28596316#1"/>
    <trip id="26" depart="26.00" from="-4478182" to="879147763#1"/>
    <trip id="27" depart="27.00" from="24158463#0" to="186866770"/>
    <trip id="28" depart="28.00" from="-23784738#2" to="32527595#4"/>
    <trip id="29" depart="29.00" from="-22751838#4" to="-9867087#2"/>
    <trip id="30" depart="30.00" from="97073858#4" to="24158218#2"/>
    <trip id="31" depart="31.00" from="158627309#2" to="28347490#0"/>
    <trip id="32" depart="32.00" from="693141378#3" to="4637707#0"/>
    <trip id="33" depart="33.00" from="-29379132#0" to="-1123244161#0"/>
    <trip id="34" depart="34.00" from="-771317202#0" to="-5019469#0"/>
    <trip id="35" depart="35.00" from="-28404072#0" to="894430767#0"/>
    <trip id="36" depart="36.00" from="780755505#1" to="-796523193"/>
    <trip id="37" depart="37.00" from="24247741" to="1066216974"/>
    <trip id="38" depart="38.00" from="833362285#0" to="1193500038#0"/>
    <trip id="39" depart="39.00" from="-4332734#6" to="-34545208#1"/>
    <trip id="40" depart="40.00" from="160192335" to="-444541477#3"/>
    <trip id="41" depart="41.00" from="16354221#3" to="820063582#1"/>
    <trip id="42" depart="42.00" from="1066216972" to="-29254951#0"/>
    <trip id="43" depart="43.00" from="9868998#10" to="13866859#8"/>
    <trip id="44" depart="44.00" from="-154837039#3" to="-12255025#2"/>
    <trip id="45" depart="45.00" from="-15833833#1" to="22751838#2"/>
    <trip id="46" depart="46.00" from="54338767#2" to="1074957742"/>
    <trip id="47" depart="47.00" from="-131714152#4" to="-9867771#6"/>
    <trip id="48" depart="48.00" from="9867771#1" to="154837039#6"/>
    <trip id="49" depart="49.00" from="921177972#2" to="741799316#1"/>
    <trip id="50" depart="50.00" from="-1069134650#0" to="309585111#1"/>
    <trip id="51" depart="51.00" from="27650805#1" to="15785418#2"/>
    <trip id="52" depart="52.00" from="-4478182" to="24158225#3"/>
    <trip id="53" depart="53.00" from="-15833850#4" to="10853055"/>
    <trip id="54" depart="54.00" from="1148489399#0" to="904660166#3"/>
    <trip id="55" depart="55.00" from="776059141" to="-4588647#3"/>
    <trip id="56" depart="56.00" from="136822575" to="-24164989#2"/>
    <trip id="57" depart="57.00" from="832779572#3" to="771317202#2"/>
    <trip id="58" depart="58.00" from="-675770223#1" to="24158210#3"/>
    <trip id="59" depart="59.00" from="185227306#1" to="-22748963#5"/>
    <trip id="60" depart="60.00" from="409263833" to="15785436#0"/>
    <trip id="61" depart="61.00" from="4637707#1" to="154837042#3"/>
    <trip id="62" depart="62.00" from="-1018359441" to="-82694042#4"/>
    <trip id="63" depart="63.00" from="-1076442002" to="8652887#1"/>
    <trip id="64" depart="64.00" from="787332301" to="673787481"/>
    <trip id="65" depart="65.00" from="-700489177" to="-126342424#4"/>
    <trip id="66" depart="66.00" from="784737615" to="895559286#2"/>
    <trip id="67" depart="67.00" from="-154644797#1" to="126342421"/>
    <trip id="68" depart="68.00" from="-133452689#6" to="415765424"/>
    <trip id="69" depart="69.00" from="420657996" to="-171771156#1"/>
    <trip id="70" depart="70.00" from="12254923#3" to="15833833#0"/>
    <trip id="71" depart="71.00" from="-4332734#7" to="771367204#0"/>
    <trip id="72" depart="72.00" from="107396685#3" to="-28788664#2"/>
    <trip id="73" depart="73.00" from="156307559#1" to="32527595#8"/>
    <trip id="74" depart="74.00" from="-27276463#5" to="-771352866"/>
    <trip id="75" depart="75.00" from="9867092#2" to="24164989#3"/>
    <trip id="76" depart="76.00" from="10852972#3" to="150867914#1"/>
    <trip id="77" depart="77.00" from="-160192356" to="-29378777#5"/>
    <trip id="78" depart="78.00" from="-846779440#1" to="176435844#0"/>
    <trip id="79" depart="79.00" from="-29379179#1" to="-29255098#1"/>
    <trip id="80" depart="80.00" from="-137055696#14" to="23296573#4"/>
    <trip id="81" depart="81.00" from="-29378777#5" to="82694042#3"/>
    <trip id="82" depart="82.00" from="729164041#1" to="-137055696#6"/>
    <trip id="83" depart="83.00" from="-303412433#1" to="26601207"/>
    <trip id="84" depart="84.00" from="-28755946" to="-176435844#6"/>
    <trip id="85" depart="85.00" from="879147760#1" to="16081568#1"/>
    <trip id="86" depart="86.00" from="1216781218" to="5055419#0"/>
    <trip id="87" depart="87.00" from="583441086" to="-255984631#0"/>
    <trip id="88" depart="88.00" from="-15785418#2" to="1085248940"/>
    <trip id="89" depart="89.00" from="107396685#5" to="120497489#2"/>
    <trip id="90" depart="90.00" from="32505399#2" to="27276496#0"/>
    <trip id="91" depart="91.00" from="9495525" to="-15785441#4"/>
    <trip id="92" depart="92.00" from="1066220808#2" to="-879147757#0"/>
    <trip id="93" depart="93.00" from="741799316#1" to="-368461882#2"/>
    <trip id="94" depart="94.00" from="-24509080#1" to="112450954#0"/>
    <trip id="95" depart="95.00" from="107396683" to="-573461192"/>
    <trip id="96" depart="96.00" from="-34544780#1" to="85933466#0"/>
    <trip id="97" depart="97.00" from="1088187917" to="741799317"/>
    <trip id="98" depart="98.00" from="15785495#9" to="-124013055#2"/>
    <trip id="99" depart="99.00" from="990608181" to="683046783#2"/>
    <trip id="100" depart="100.00" from="917970208" to="8598858#1"/>
    <trip id="101" depart="101.00" from="700489178" to="-23784359"/>
    <trip id="102" depart="102.00" from="126337545#2" to="-28829850#1"/>
    <trip id="103" depart="103.00" from="1066220806" to="-131706175#0"/>
    <trip id="104" depart="104.00" from="-9495769#3" to="9495769#2"/>
    <trip id="105" depart="105.00" from="-4350726#0" to="5055416#4"/>
    <trip id="106" depart="106.00" from="1154970602" to="1076444719"/>
    <trip id="107" depart="107.00" from="908375510" to="9867771#0"/>
    <trip id="108" depart="108.00" from="158627301#0" to="303412430"/>
    <trip id="109" depart="109.00" from="-22673864#0" to="-691612299#4"/>
    <trip id="110" depart="110.00" from="917618538" to="16268780"/>
    <trip id="111" depart="111.00" from="15785430#1" to="370191609#2"/>
    <trip id="112" depart="112.00" from="-126337537#1" to="163844197#0"/>
    <trip id="113" depart="113.00" from="136822587#3" to="713599163"/>
    <trip id="114" depart="114.00" from="-22751216#0" to="9160143#0"/>
    <trip id="115" depart="115.00" from="-150867896#10" to="-24509080#0"/>
    <trip id="116" depart="116.00" from="176438183" to="27276538#4"/>
    <trip id="117" depart="117.00" from="-303412427#19" to="-160192369#1"/>
    <trip id="118" depart="118.00" from="805198999" to="-34544811#0"/>
    <trip id="119" depart="119.00" from="176438182#0" to="22748963#2"/>
    <trip id="120" depart="120.00" from="1072780237" to="163844182#2"/>
    <trip id="121" depart="121.00" from="150867937#0" to="879147760#0"/>
    <trip id="122" depart="122.00" from="-27323189#3" to="303412427#19"/>
    <trip id="123" depart="123.00" from="-30678855#1" to="1066216975#0"/>
    <trip id="124" depart="124.00" from="2667111#1" to="-694268908"/>
    <trip id="125" depart="125.00" from="-771352866" to="379389868#7"/>
    <trip id="126" depart="126.00" from="-137055696#23" to="1192535484#2"/>
    <trip id="127" depart="127.00" from="9868998#4" to="9867771#3"/>
    <trip id="128" depart="128.00" from="-137055696#4" to="-28788771#7"/>
    <trip id="129" depart="129.00" from="-4350726#0" to="879147758#3"/>
    <trip id="130" depart="130.00" from="795146860#1" to="795131675"/>
    <trip id="131" depart="131.00" from="-917281126#3" to="-22751830#1"/>
    <trip id="132" depart="132.00" from="674854148#1" to="29255098#3"/>
    <trip id="133" depart="133.00" from="186722561#1" to="961977255#0"/>
    <trip id="134" depart="134.00" from="24247087#3" to="-1068124662"/>
    <trip id="135" depart="135.00" from="624159303" to="-693141379#1"/>
    <trip id="136" depart="136.00" from="24509353" to="89416992#5"/>
    <trip id="137" depart="137.00" from="-175374037" to="-160192343#2"/>
    <trip id="138" depart="138.00" from="-15785495#7" to="158627301#0"/>
    <trip id="139" depart="139.00" from="-5055419#0" to="184031600"/>
    <trip id="140" depart="140.00" from="303412427#17" to="-27768033#1"/>
    <trip id="141" depart="141.00" from="23296577#0" to="-4637643#0"/>
    <trip id="142" depart="142.00" from="126342423#1" to="82694042#3"/>
    <trip id="143" depart="143.00" from="694661265" to="-156307556#1"/>
    <trip id="144" depart="144.00" from="107396685#5" to="-563377900"/>
    <trip id="145" depart="145.00" from="-105691112#2" to="444541477#3"/>
    <trip id="146" depart="146.00" from="23296597#0" to="-4350727#1"/>
    <trip id="147" depart="147.00" from="34545208#0" to="15833850#3"/>
    <trip id="148" depart="148.00" from="1076913652#1" to="-1069128938"/>
    <trip id="149" depart="149.00" from="-137055699#5" to="799533699"/>
    <trip id="150" depart="150.00" from="825090442#1" to="15785471#1"/>
    <trip id="151" depart="151.00" from="675770225#1" to="16354304#2"/>
    <trip id="152" depart="152.00" from="-185227314#1" to="-16354264#0"/>
    <trip id="153" depart="153.00" from="-706706677#1" to="820063587#1"/>
    <trip id="154" depart="154.00" from="555383298#6" to="741799316#1"/>
    <trip id="155" depart="155.00" from="820063582#0" to="-28755948"/>
    <trip id="156" depart="156.00" from="-34544780#0" to="-15785495#2"/>
    <trip id="157" depart="157.00" from="472471257#1" to="799533706"/>
    <trip id="158" depart="158.00" from="1067761766#0" to="22751162"/>
    <trip id="159" depart="159.00" from="-223237409" to="8652892#1"/>
    <trip id="160" depart="160.00" from="745787646#0" to="930545603"/>
    <trip id="161" depart="161.00" from="603213627" to="7980873#0"/>
    <trip id="162" depart="162.00" from="-10852915#8" to="333199725"/>
    <trip id="163" depart="163.00" from="-832779568#1" to="8652901"/>
    <trip id="164" depart="164.00" from="563387014" to="745787646#1"/>
    <trip id="165" depart="165.00" from="603213627" to="-48630242#1"/>
    <trip id="166" depart="166.00" from="5055419#1" to="-15833850#3"/>
    <trip id="167" depart="167.00" from="771352866" to="729164041#1"/>
    <trip id="168" depart="168.00" from="-29170675#1" to="634092846#1"/>
    <trip id="169" depart="169.00" from="118783741#1" to="-71941270"/>
    <trip id="170" depart="170.00" from="555383298#2" to="-302778227#0"/>
    <trip id="171" depart="171.00" from="-10852915#1" to="-262234278"/>
    <trip id="172" depart="172.00" from="-82694037#1" to="745787649#0"/>
    <trip id="173" depart="173.00" from="917450542" to="-575729108#2"/>
    <trip id="174" depart="174.00" from="24158210#6" to="1066220808#8"/>
    <trip id="175" depart="175.00" from="945948199" to="156307559#0"/>
    <trip id="176" depart="176.00" from="89416981" to="-160192343#2"/>
    <trip id="177" depart="177.00" from="921177970" to="-24164989#2"/>
    <trip id="178" depart="178.00" from="9160651#1" to="-46503500"/>
    <trip id="179" depart="179.00" from="-15833814#1" to="10853045"/>
    <trip id="180" depart="180.00" from="32139370#0" to="-795119607"/>
    <trip id="181" depart="181.00" from="182994406#0" to="146694555#5"/>
    <trip id="182" depart="182.00" from="-9867771#0" to="16174707#1"/>
    <trip id="183" depart="183.00" from="-370826485" to="29378777#5"/>
    <trip id="184" depart="184.00" from="-1018619052" to="8598773#0"/>
    <trip id="185" depart="185.00" from="156307556#2" to="30678855#0"/>
    <trip id="186" depart="186.00" from="34546107" to="27276111#1"/>
    <trip id="187" depart="187.00" from="-904912310#1" to="-137055696#24"/>
    <trip id="188" depart="188.00" from="24509412#3" to="-836645498"/>
    <trip id="189" depart="189.00" from="-745787649#5" to="704746729#2"/>
    <trip id="190" depart="190.00" from="303412428#0" to="-694268909#1"/>
    <trip id="191" depart="191.00" from="-71940900#3" to="1069134649#3"/>
    <trip id="192" depart="192.00" from="1066220808#0" to="-676492461"/>
    <trip id="193" depart="193.00" from="-161271150#1" to="1074607189#0"/>
    <trip id="194" depart="194.00" from="89416994#0" to="27323189#2"/>
    <trip id="195" depart="195.00" from="825090434#1" to="20819402"/>
    <trip id="196" depart="196.00" from="-691612299#0" to="15833743#0"/>
    <trip id="197" depart="197.00" from="-1018359441" to="-642436141"/>
    <trip id="198" depart="198.00" from="1077811777" to="16353995#1"/>
    <trip id="199" depart="199.00" from="24247294#2" to="120495853#0"/>
    <trip id="200" depart="200.00" from="1086958824#1" to="-28829850#1"/>
    <trip id="201" depart="201.00" from="1219663090#1" to="825090431#1"/>
    <trip id="202" depart="202.00" from="555383298#5" to="-24158218#3"/>
    <trip id="203" depart="203.00" from="-150867936" to="150867896#15"/>
    <trip id="204" depart="204.00" from="23296573#3" to="-8598773#3"/>
    <trip id="205" depart="205.00" from="635716755" to="379389868#3"/>
    <trip id="206" depart="206.00" from="27276111#1" to="-29378777#5"/>
    <trip id="207" depart="207.00" from="-272720932" to="-10853055"/>
    <trip id="208" depart="208.00" from="-32527595#2" to="123326750"/>
    <trip id="209" depart="209.00" from="704746731#3" to="-137055701"/>
    <trip id="210" depart="210.00" from="1069841144#0" to="22919121#3"/>
    <trip id="211" depart="211.00" from="-255984630" to="28788771#7"/>
    <trip id="212" depart="212.00" from="131714154#14" to="-332100657#6"/>
    <trip id="213" depart="213.00" from="24247758#3" to="-1067761765#1"/>
    <trip id="214" depart="214.00" from="370372821#1" to="435468253#0"/>
    <trip id="215" depart="215.00" from="-15785495#5" to="1077700617#1"/>
    <trip id="216" depart="216.00" from="-24158239#2" to="908668114#1"/>
    <trip id="217" depart="217.00" from="150867896#13" to="-124013055#0"/>
    <trip id="218" depart="218.00" from="-34366345#1" to="704746731#2"/>
    <trip id="219" depart="219.00" from="1169533425" to="563391736#0"/>
    <trip id="220" depart="220.00" from="256019242#0" to="963451908#1"/>
    <trip id="221" depart="221.00" from="176438184#1" to="901491521#2"/>
    <trip id="222" depart="222.00" from="806249268" to="187489436#0"/>
    <trip id="223" depart="223.00" from="303412427#8" to="137055699#0"/>
    <trip id="224" depart="224.00" from="643170756#5" to="15833742"/>
    <trip id="225" depart="225.00" from="820063560#0" to="368461882#2"/>
    <trip id="226" depart="226.00" from="12254923#0" to="-420658574#1"/>
    <trip id="227" depart="227.00" from="-332100657#2" to="24158208#0"/>
    <trip id="228" depart="228.00" from="420657996" to="154644771#3"/>
    <trip id="229" depart="229.00" from="22751224#1" to="-556914933#6"/>
    <trip id="230" depart="230.00" from="-13866861" to="-626683786"/>
    <trip id="231" depart="231.00" from="-5019469#3" to="-820063586"/>
    <trip id="232" depart="232.00" from="15785418#2" to="-176458064"/>
    <trip id="233" depart="233.00" from="-29397305" to="28756024#2"/>
    <trip id="234" depart="234.00" from="29257171#0" to="-131714156"/>
    <trip id="235" depart="235.00" from="1068103211" to="15785444#2"/>
    <trip id="236" depart="236.00" from="1069874348#0" to="-28404072#1"/>
    <trip id="237" depart="237.00" from="107396681#5" to="82694042#0"/>
    <trip id="238" depart="238.00" from="16354221#0" to="28788771#2"/>
    <trip id="239" depart="239.00" from="71942401#5" to="4243614#1"/>
    <trip id="240" depart="240.00" from="-961628341" to="-1067761765#3"/>
    <trip id="241" depart="241.00" from="-894197955" to="395489245#2"/>
    <trip id="242" depart="242.00" from="709096590" to="904645326#3"/>
    <trip id="243" depart="243.00" from="1072400001" to="370191609#0"/>
    <trip id="244" depart="244.00" from="15785450#4" to="182992394"/>
    <trip id="245" depart="245.00" from="-29170628#0" to="-29254951#1"/>
    <trip id="246" depart="246.00" from="10852915#6" to="-1090388062"/>
    <trip id="247" depart="247.00" from="-8382241#2" to="27323203#0"/>
    <trip id="248" depart="248.00" from="1066230416#1" to="-23296597#3"/>
    <trip id="249" depart="249.00" from="120494978#1" to="-16354264#1"/>
    <trip id="250" depart="250.00" from="22748963#1" to="-1086907966"/>
    <trip id="251" depart="251.00" from="1035321070#2" to="160192360#2"/>
    <trip id="252" depart="252.00" from="-10853062#5" to="24158239#5"/>
    <trip id="253" depart="253.00" from="-176435844#6" to="119883577#7"/>
    <trip id="254" depart="254.00" from="-12255066#0" to="-9867087#0"/>
    <trip id="255" depart="255.00" from="-28404170#2" to="-832779567#2"/>
    <trip id="256" depart="256.00" from="404567134#1" to="-9867087#0"/>
    <trip id="257" depart="257.00" from="370826355#1" to="674167443"/>
    <trip id="258" depart="258.00" from="-354449750" to="-150867922"/>
    <trip id="259" depart="259.00" from="-1076442002" to="15785436#0"/>
    <trip id="260" depart="260.00" from="99810162#1" to="-894472205#0"/>
    <trip id="261" depart="261.00" from="24164743#1" to="5019469#4"/>
    <trip id="262" depart="262.00" from="24164989#11" to="402902177"/>
    <trip id="263" depart="263.00" from="901059728" to="-27276538#8"/>
    <trip id="264" depart="264.00" from="-1076915315" to="-22748963#3"/>
    <trip id="265" depart="265.00" from="-160192388#0" to="2667111#0"/>
    <trip id="266" depart="266.00" from="160192343#5" to="-29170675#0"/>
    <trip id="267" depart="267.00" from="28829850#3" to="4332734#0"/>
    <trip id="268" depart="268.00" from="-23296584#3" to="185227314#1"/>
    <trip id="269" depart="269.00" from="369832203#1" to="-160192342#1"/>
    <trip id="270" depart="270.00" from="642404470#2" to="9160986#1"/>
    <trip id="271" depart="271.00" from="-15833814#0" to="-10853062#6"/>
    <trip id="272" depart="272.00" from="-741799320#1" to="27323189#2"/>
    <trip id="273" depart="273.00" from="908668114#1" to="1066220805#0"/>
    <trip id="274" depart="274.00" from="302778227#0" to="-146694561#2"/>
    <trip id="275" depart="275.00" from="28462766#1" to="22751838#1"/>
    <trip id="276" depart="276.00" from="-15785441#7" to="4483518#2"/>
    <trip id="277" depart="277.00" from="704771884#1" to="17899147#1"/>
    <trip id="278" depart="278.00" from="-160192356" to="9495520"/>
    <trip id="279" depart="279.00" from="4970340#2" to="-894197956"/>
    <trip id="280" depart="280.00" from="1076915316#0" to="-9495415#0"/>
    <trip id="281" depart="281.00" from="137055696#25" to="-879147758#6"/>
    <trip id="282" depart="282.00" from="704746731#2" to="643160792#2"/>
    <trip id="283" depart="283.00" from="-15785493" to="9160143#0"/>
    <trip id="284" depart="284.00" from="23296582#3" to="643170756#2"/>
    <trip id="285" depart="285.00" from="29369535" to="10853062#3"/>
    <trip id="286" depart="286.00" from="32775594" to="9163271#1"/>
    <trip id="287" depart="287.00" from="-48627096#0" to="59346515"/>
    <trip id="288" depart="288.00" from="156307556#0" to="126337545#2"/>
    <trip id="289" depart="289.00" from="10852915#4" to="32775592#0"/>
    <trip id="290" depart="290.00" from="-4637643#3" to="708734830"/>
    <trip id="291" depart="291.00" from="643170756#6" to="-154837034#0"/>
    <trip id="292" depart="292.00" from="795473374" to="-332100657#6"/>
    <trip id="293" depart="293.00" from="119883577#7" to="187006815#4"/>
    <trip id="294" depart="294.00" from="-9495769#3" to="-1089352610#0"/>
    <trip id="295" depart="295.00" from="706105473" to="-24247305#1"/>
    <trip id="296" depart="296.00" from="-28404193#0" to="557270461"/>
    <trip id="297" depart="297.00" from="-8598858#1" to="795473374"/>
    <trip id="298" depart="298.00" from="29170624#0" to="-563377895#1"/>
    <trip id="299" depart="299.00" from="-1069128937" to="895559287#2"/>
    <trip id="300" depart="300.00" from="-154644797#1" to="30678920#0"/>
    <trip id="301" depart="301.00" from="126342423#2" to="404567134#0"/>
    <trip id="302" depart="302.00" from="28462766#1" to="24158452"/>
    <trip id="303" depart="303.00" from="126350685#3" to="555383298#0"/>
    <trip id="304" depart="304.00" from="-154837045#1" to="-29374209#1"/>
    <trip id="305" depart="305.00" from="28571891" to="-71942401#4"/>
    <trip id="306" depart="306.00" from="161754857#0" to="12254923#6"/>
    <trip id="307" depart="307.00" from="154837039#10" to="1077721638"/>
    <trip id="308" depart="308.00" from="368461882#2" to="-8382241#1"/>
    <trip id="309" depart="309.00" from="29170670#0" to="-552813990"/>
    <trip id="310" depart="310.00" from="-35002847#2" to="-160192373#2"/>
    <trip id="311" depart="311.00" from="-24509412#4" to="-160192369#0"/>
    <trip id="312" depart="312.00" from="156307479#1" to="418206262#1"/>
    <trip id="313" depart="313.00" from="-24247294#0" to="-29170628#1"/>
    <trip id="314" depart="314.00" from="126337540" to="32003147#1"/>
    <trip id="315" depart="315.00" from="931318687" to="154644810#3"/>
    <trip id="316" depart="316.00" from="-573461192" to="-15785456#1"/>
    <trip id="317" depart="317.00" from="-255984629#2" to="-302778226#0"/>
    <trip id="318" depart="318.00" from="-24158463#1" to="-1069874353#0"/>
    <trip id="319" depart="319.00" from="154837048#0" to="-556914933#4"/>
    <trip id="320" depart="320.00" from="924607337#3" to="158627301#2"/>
    <trip id="321" depart="321.00" from="28788669" to="-163534559"/>
    <trip id="322" depart="322.00" from="751200332#0" to="131714152#4"/>
    <trip id="323" depart="323.00" from="771367202#2" to="161306512"/>
    <trip id="324" depart="324.00" from="120497489#0" to="1090956391"/>
    <trip id="325" depart="325.00" from="-24247087#1" to="-12449345#1"/>
    <trip id="326" depart="326.00" from="89416994#4" to="124013055#0"/>
    <trip id="327" depart="327.00" from="643157900#6" to="1067675512"/>
    <trip id="328" depart="328.00" from="-137055696#9" to="22919121#2"/>
    <trip id="329" depart="329.00" from="-12448619" to="-189980441#0"/>
    <trip id="330" depart="330.00" from="160192342#4" to="-714996420"/>
    <trip id="331" depart="331.00" from="98114956#1" to="-160192360#1"/>
    <trip id="332" depart="332.00" from="416894845" to="185227306#3"/>
    <trip id="333" depart="333.00" from="54030025#1" to="-29379179#1"/>
    <trip id="334" depart="334.00" from="150867936" to="1148489399#1"/>
    <trip id="335" depart="335.00" from="1088060314#0" to="741799315#0"/>
    <trip id="336" depart="336.00" from="97073858#7" to="-71942401#0"/>
    <trip id="337" depart="337.00" from="22673864#0" to="187006815#1"/>
    <trip id="338" depart="338.00" from="34544784" to="895559287#0"/>
    <trip id="339" depart="339.00" from="-27650833" to="-28788646#0"/>
    <trip id="340" depart="340.00" from="24248542" to="-22751310#0"/>
    <trip id="341" depart="341.00" from="-24158218#3" to="-13866958#0"/>
    <trip id="342" depart="342.00" from="-102925202" to="1148489399#1"/>
    <trip id="343" depart="343.00" from="176435850" to="-643170756#0"/>
    <trip id="344" depart="344.00" from="-302778225" to="29377703#1"/>
    <trip id="345" depart="345.00" from="29170670#0" to="1171640558"/>
    <trip id="346" depart="346.00" from="28394104#0" to="85933513"/>
    <trip id="347" depart="347.00" from="5055419#4" to="22751307#1"/>
    <trip id="348" depart="348.00" from="24509080#2" to="879147758#5"/>
    <trip id="349" depart="349.00" from="1074829257#1" to="15785462#1"/>
    <trip id="350" depart="350.00" from="24158359#1" to="832779567#2"/>
    <trip id="351" depart="351.00" from="643166962" to="-137055699#0"/>
    <trip id="352" depart="352.00" from="-23296576" to="-745787646#0"/>
    <trip id="353" depart="353.00" from="370191605#0" to="160192388#0"/>
    <trip id="354" depart="354.00" from="-615478344#0" to="-16174062#0"/>
    <trip id="355" depart="355.00" from="28404170#2" to="29170628#1"/>
    <trip id="356" depart="356.00" from="894208885" to="136822601#1"/>
    <trip id="357" depart="357.00" from="131714154#10" to="-150867913"/>
    <trip id="358" depart="358.00" from="-1193500040" to="10852915#5"/>
    <trip id="359" depart="359.00" from="-809323034" to="-370826355#1"/>
    <trip id="360" depart="360.00" from="-154837039#6" to="9160262#4"/>
    <trip id="361" depart="361.00" from="676482062#1" to="16174062#0"/>
    <trip id="362" depart="362.00" from="901537946" to="99655821"/>
    <trip id="363" depart="363.00" from="272720932" to="-5055419#4"/>
    <trip id="364" depart="364.00" from="-1193896447" to="404567111#1"/>
    <trip id="365" depart="365.00" from="121188635" to="24247087#1"/>
    <trip id="366" depart="366.00" from="836645499" to="-24247294#2"/>
    <trip id="367" depart="367.00" from="16354304#1" to="23296595"/>
    <trip id="368" depart="368.00" from="131706175#2" to="-154837048#1"/>
    <trip id="369" depart="369.00" from="-879147760#5" to="-855694814"/>
    <trip id="370" depart="370.00" from="262235006" to="722920397#2"/>
    <trip id="371" depart="371.00" from="-82694047#2" to="28756024#1"/>
    <trip id="372" depart="372.00" from="-615478343#0" to="894641170#1"/>
    <trip id="373" depart="373.00" from="614773843" to="15833833#2"/>
    <trip id="374" depart="374.00" from="1154049815#0" to="-795463274#1"/>
    <trip id="375" depart="375.00" from="-820063559#1" to="921169755#0"/>
    <trip id="376" depart="376.00" from="1066230416#0" to="150867896#1"/>
    <trip id="377" depart="377.00" from="965295379" to="24248441#2"/>
    <trip id="378" depart="378.00" from="15785439#0" to="1071718214#0"/>
    <trip id="379" depart="379.00" from="-24248377#1" to="-9160739#0"/>
    <trip id="380" depart="380.00" from="402902177" to="22751310#1"/>
    <trip id="381" depart="381.00" from="404567125#1" to="-27768033#1"/>
    <trip id="382" depart="382.00" from="15785495#3" to="863467429#0"/>
    <trip id="383" depart="383.00" from="10852972#3" to="29169527#1"/>
    <trip id="384" depart="384.00" from="-160192360#0" to="923261417#1"/>
    <trip id="385" depart="385.00" from="185227306#1" to="-32505399#5"/>
    <trip id="386" depart="386.00" from="-22751222#0" to="15833846#1"/>
    <trip id="387" depart="387.00" from="15833824#3" to="-156307559#1"/>
    <trip id="388" depart="388.00" from="9793961#2" to="833362251#1"/>
    <trip id="389" depart="389.00" from="1192224776#2" to="-160192349"/>
    <trip id="390" depart="390.00" from="657655984#3" to="136822578"/>
    <trip id="391" depart="391.00" from="303412427#12" to="13866859#5"/>
    <trip id="392" depart="392.00" from="-5055419#6" to="676482062#1"/>
    <trip id="393" depart="393.00" from="945397248#1" to="-332100657#5"/>
    <trip id="394" depart="394.00" from="15833814#1" to="-9868998#9"/>
    <trip id="395" depart="395.00" from="85396133#0" to="13866859#1"/>
    <trip id="396" depart="396.00" from="795127853#0" to="745787646#1"/>
    <trip id="397" depart="397.00" from="-555383298#4" to="54338771#1"/>
    <trip id="398" depart="398.00" from="1069841147" to="879147758#8"/>
    <trip id="399" depart="399.00" from="137055699#2" to="643157900#6"/>
    <trip id="400" depart="400.00" from="-573461181" to="-693141378#0"/>
    <trip id="401" depart="401.00" from="163844197#0" to="9868998#8"/>
    <trip id="402" depart="402.00" from="126342428" to="-187489436#0"/>
    <trip id="403" depart="403.00" from="156307556#3" to="-879147763#6"/>
    <trip id="404" depart="404.00" from="15833824#1" to="15785450#4"/>
    <trip id="405" depart="405.00" from="115577593#1" to="-825090434#0"/>
    <trip id="406" depart="406.00" from="-24248441#0" to="29169513#0"/>
    <trip id="407" depart="407.00" from="160192384#0" to="-303412434"/>
    <trip id="408" depart="408.00" from="4491076" to="-1216781214#2"/>
    <trip id="409" depart="409.00" from="35002850#4" to="29369535"/>
    <trip id="410" depart="410.00" from="606532671" to="1018596417"/>
    <trip id="411" depart="411.00" from="24509412#1" to="643157900#7"/>
    <trip id="412" depart="412.00" from="945410187" to="132686162"/>
    <trip id="413" depart="413.00" from="-1171111975" to="137055696#2"/>