<routes>
<person id="person_1" depart="104" departLane="random" departSpeed="1" color="0,1,0">
<walk from="303412427#1" busStop="303412427#1" speed="1.5"/>
<stop busStop="303412427#1" duration="1000"/>
</person>
<person id="person_2" depart="186" departLane="random" departSpeed="1" color="0,1,0">
<walk from="303412427#3" busStop="303412427#3" speed="1.5"/>
<ride line="trad_line" busStop="303412427#3" to="303412427#3"/>
<walk edges="303412427#3" speed="1.5"/>
</person>
<person id="person_3" depart="291" departLane="random" departSpeed="1" color="0,1,0">
<walk from="303412427#10" busStop="303412427#10" speed="1.5"/>
<ride line="modern_line" busStop="303412427#10" to="303412427#10"/>
<walk edges="303412427#10" speed="1.5"/>
</person>
<person id="person_4" depart="306" departLane="random" departSpeed="1" color="0,1,0">
<walk from="303412427#10" busStop="303412427#10" speed="1.5"/>
<ride line="modern_line" busStop="303412427#10" to="303412427#10"/>
<walk edges="303412427#10" speed="1.5"/>
</person>
<person id="person_5" depart="306" departLane="random" departSpeed="1" color="0,1,0">
<walk from="303412427#10" busStop="303412427#10" speed="1.5"/>
<ride line="modern_line" busStop="303412427#10" to="303412427#10"/>
<walk edges="303412427#10" speed="1.5"/>
</person>
<person id="person_6" depart="342" departLane="random" departSpeed="1" color="0,1,0">
<walk from="303412427#15" busStop="303412427#15" speed="1.5"/>
<stop busStop="303412427#15" duration="1000"/>
</person>
<person id="person_7" depart="351" departLane="random" departSpeed="1" color="0,1,0">
<walk from="303412427#16" busStop="303412427#16" speed="1.5"/>
<stop busStop="303412427#16" duration="1000"/>
</person>
<person id="person_8" depart="351" departLane="random" departSpeed="1" color="0,1,0">
<walk from="303412427#16" busStop="303412427#16" speed="1.5"/>
<stop busStop="303412427#16" duration="1000"/>
</person>
<person id="person_9" depart="448" departLane="random" departSpeed="1" color="0,1,0">
<walk from="924607337#3" busStop="924607337#4" speed="1.5"/>
<ride line="modern_line" busStop="924607337#4" to="924607337#4"/>
<walk edges="924607337#4" speed="1.5"/>
</person>
<person id="person_10" depart="543" departLane="random" departSpeed="1" color="0,1,0">
<walk from="615456195" busStop="615456195" speed="1.5"/>
<ride line="trad_line" busStop="615456195" to="615456195"/>
<walk edges="615456195" speed="1.5"/>
</person>
<person id="person_11" depart="543" departLane="random" departSpeed="1" color="0,1,0">
<walk from="615456195" busStop="615456195" speed="1.5"/>
<ride line="trad_line" busStop="615456195" to="615456195"/>
<walk edges="615456195" speed="1.5"/>
</person>
<person id="person_12" depart="543" departLane="random" departSpeed="1" color="0,1,0">
<walk from="615456195" busStop="615456195" speed="1.5"/>
<ride line="trad_line" busStop="615456195" to="615456195"/>
<walk edges="615456195" speed="1.5"/>
</person>
<person id="person_13" depart="543" departLane="random" departSpeed="1" color="0,1,0">
<walk from="615456195" busStop="615456195" speed="1.5"/>
<ride line="trad_line" busStop="615456195" to="615456195"/>
<walk edges="615456195" speed="1.5"/>
</person>
<person id="person_14" depart="543" departLane="random" departSpeed="1" color="0,1,0">
<walk from="615456195" busStop="615456195" speed="1.5"/>
<ride line="modern_line" busStop="615456195" to="615456195"/>
<walk edges="615456195" speed="1.5"/>
</person>
<person id="person_15" depart="543" departLane="random" departSpeed="1" color="0,1,0">
<walk from="615456195" busStop="615456195" speed="1.5"/>
<ride line="modern_line" busStop="615456195" to="615456195"/>
<walk edges="615456195" speed="1.5"/>
</person>
<person id="person_16" depart="543" departLane="random" departSpeed="1" color="0,1,0">
<walk from="615456195" busStop="615456195" speed="1.5"/>
<stop busStop="615456195" duration="1000"/>
</person>
<person id="person_17" depart="649" departLane="random" departSpeed="1" color="0,1,0">
<walk from="368461882#2" busStop="368461882#2" speed="1.5"/>
<stop busStop="368461882#2" duration="1000"/>
</person>
<person id="person_18" depart="654" departLane="random" departSpeed="1" color="0,1,0">
<walk from="923261416" busStop="923261416" speed="1.5"/>
<ride line="trad_line" busStop="923261416" to="923261416"/>
<walk edges="923261416" speed="1.5"/>
</person>
<person id="person_19" depart="669" departLane="random" departSpeed="1" color="0,1,0">
<walk from="923261416" busStop="923261416" speed="1.5"/>
<stop busStop="923261416" duration="1000"/>
</person>
<person id="person_20" depart="669" departLane="random" departSpeed="1" color="0,1,0">
<walk from="923261416" busStop="923261416" speed="1.5"/>
<ride line="trad_line" busStop="923261416" to="923261416"/>
<walk edges="923261416" speed="1.5"/>
</person>
<person id="person_21" depart="709" departLane="random" departSpeed="1" color="0,1,0">
<walk from="923261416" busStop="923261416" speed="1.5"/>
<stop busStop="923261416" duration="1000"/>
</person>
<person id="person_22" depart="745" departLane="random" departSpeed="1" color="0,1,0">
<walk from="694268909#0" busStop="694268909#0" speed="1.5"/>
<stop busStop="694268909#0" duration="1000"/>
</person>
<person id="person_23" depart="793" departLane="random" departSpeed="1" color="0,1,0">
<walk from="82694445#1" busStop="82694445#1" speed="1.5"/>
<ride line="trad_line" busStop="82694445#1" to="82694445#1"/>
<walk edges="82694445#1" speed="1.5"/>
</person>
<person id="person_24" depart="810" departLane="random" departSpeed="1" color="0,1,0">
<walk from="82694445#2" busStop="82694445#2" speed="1.5"/>
<ride line="trad_line" busStop="82694445#2" to="82694445#2"/>
<walk edges="82694445#2" speed="1.5"/>
</person>
<person id="person_25" depart="827" departLane="random" departSpeed="1" color="0,1,0">
<walk from="82694458#0" busStop="82694458#0" speed="1.5"/>
<ride line="modern_line" busStop="82694458#0" to="82694458#0"/>
<walk edges="82694458#0" speed="1.5"/>
</person>
<person id="person_26" depart="962" departLane="random" departSpeed="1" color="0,1,0">
<walk from="575729552#1" busStop="575729552#1" speed="1.5"/>
<stop busStop="575729552#1" duration="1000"/>
</person>
<person id="person_27" depart="962" departLane="random" departSpeed="1" color="0,1,0">
<walk from="575729552#1" busStop="575729552#1" speed="1.5"/>
<stop busStop="575729552#1" duration="1000"/>
</person>
<person id="person_28" depart="962" departLane="random" departSpeed="1" color="0,1,0">
<walk from="575729552#1" busStop="575729552#1" speed="1.5"/>
<stop busStop="575729552#1" duration="1000"/>
</person>
<person id="person_29" depart="962" departLane="random" departSpeed="1" color="0,1,0">
<walk from="575729552#1" busStop="575729552#1" speed="1.5"/>
<stop busStop="575729552#1" duration="1000"/>
</person>
<person id="person_30" depart="969" departLane="random" departSpeed="1" color="0,1,0">
<walk from="4086429" busStop="4086429" speed="1.5"/>
<stop busStop="4086429" duration="1000"/>
</person>
<person id="person_31" depart="969" departLane="random" departSpeed="1" color="0,1,0">
<walk from="4086429" busStop="4086429" speed="1.5"/>
<stop busStop="4086429" duration="1000"/>
</person>
<person id="person_32" depart="1004" departLane="random" departSpeed="1" color="0,1,0">
<walk from="-940627086" busStop="-940627086" speed="1.5"/>
<stop busStop="-940627086" duration="1000"/>
</person>
<person id="person_33" depart="1031" departLane="random" departSpeed="1" color="0,1,0">
<walk from="-4332734#4" busStop="-4332734#4" speed="1.5"/>
<stop busStop="-4332734#4" duration="1000"/>
</person>
<person id="person_34" depart="1058" departLane="random" departSpeed="1" color="0,1,0">
<walk from="-4332734#0" busStop="-4332734#0" speed="1.5"/>
<stop busStop="-4332734#0" duration="1000"/>
</person>
<person id="person_35" depart="1088" departLane="random" departSpeed="1" color="0,1,0">
<walk from="-48630242#3" busStop="-48630242#3" speed="1.5"/>
<stop busStop="-48630242#3" duration="1000"/>
</person>
<person id="person_36" depart="1088" departLane="random" departSpeed="1" color="0,1,0">
<walk from="-48630242#3" busStop="-48630242#3" speed="1.5"/>
<stop busStop="-48630242#3" duration="1000"/>
</person>
<person id="person_37" depart="1096" departLane="random" departSpeed="1" color="0,1,0">
<walk from="-48630242#2" busStop="-48630242#2" speed="1.5"/>
<ride line="modern_line" busStop="-48630242#2" to="-48630242#2"/>
<walk edges="-48630242#2" speed="1.5"/>
</person>
<person id="person_38" depart="1114" departLane="random" departSpeed="1" color="0,1,0">
<walk from="-48630242#2" busStop="-48630242#2" speed="1.5"/>
<stop busStop="-48630242#2" duration="1000"/>
</person>
<person id="person_39" depart="1114" departLane="random" departSpeed="1" color="0,1,0">
<walk from="-48630242#2" busStop="-48630242#2" speed="1.5"/>
<stop busStop="-48630242#2" duration="1000"/>
</person>
<person id="person_40" depart="1115" departLane="random" departSpeed="1" color="0,1,0">
<walk from="-48630242#2" busStop="-48630242#2" speed="1.5"/>
<stop busStop="-48630242#2" duration="1000"/>
</person>
<person id="person_41" depart="1129" departLane="random" departSpeed="1" color="0,1,0">
<walk from="-48630242#1" busStop="-48630242#1" speed="1.5"/>
<stop busStop="-48630242#1" duration="1000"/>
</person>
<person id="person_42" depart="1139" departLane="random" departSpeed="1" color="0,1,0">
<walk from="-48630242#1" busStop="-48630242#1" speed="1.5"/>
<stop busStop="-48630242#1" duration="1000"/>
</person>
<person id="person_43" depart="1287" departLane="random" departSpeed="1" color="0,1,0">
<walk from="-1076442002" busStop="-1076442002" speed="1.5"/>
<stop busStop="-1076442002" duration="1000"/>
</person>
<person id="person_44" depart="1392" departLane="random" departSpeed="1" color="0,1,0">
<walk from="-4588647#3" busStop="-4588647#3" speed="1.5"/>
<stop busStop="-4588647#3" duration="1000"/>
</person>
<person id="person_45" depart="1394" departLane="random" departSpeed="1" color="0,1,0">
<walk from="-4588647#0" busStop="-4588647#0" speed="1.5"/>
<stop busStop="-4588647#0" duration="1000"/>
</person>
<person id="person_46" depart="1420" departLane="random" departSpeed="1" color="0,1,0">
<walk from="136822582" busStop="136822582" speed="1.5"/>
<stop busStop="136822582" duration="1000"/>
</person>
<person id="person_47" depart="1426" departLane="random" departSpeed="1" color="0,1,0">
<walk from="1174874706" busStop="136822582" speed="1.5"/>
<ride line="modern_line" busStop="136822582" to="136822582"/>
<walk edges="136822582" speed="1.5"/>
</person>
<person id="person_48" depart="1460" departLane="random" departSpeed="1" color="0,1,0">
<walk from="161754856" busStop="161754856" speed="1.5"/>
<stop busStop="161754856" duration="1000"/>
</person>
<person id="person_49" depart="1544" departLane="random" departSpeed="1" color="0,1,0">
<walk from="136822571#1" busStop="136822571#1" speed="1.5"/>
<stop busStop="136822571#1" duration="1000"/>
</person>
<person id="person_50" depart="1544" departLane="random" departSpeed="1" color="0,1,0">
<walk from="136822571#1" busStop="136822571#1" speed="1.5"/>
<stop busStop="136822571#1" duration="1000"/>
</person>
<person id="person_51" depart="1572" departLane="random" departSpeed="1" color="0,1,0">
<walk from="161754854#2" busStop="161754854#2" speed="1.5"/>
<stop busStop="161754854#2" duration="1000"/>
</person>
<person id="person_52" depart="1573" departLane="random" departSpeed="1" color="0,1,0">
<walk from="161754854#2" busStop="161754854#2" speed="1.5"/>
<stop busStop="161754854#2" duration="1000"/>
</person>
<person id="person_53" depart="1574" departLane="random" departSpeed="1" color="0,1,0">
<walk from="161754854#2" busStop="161754854#2" speed="1.5"/>
<stop busStop="161754854#2" duration="1000"/>
</person>
<person id="person_54" depart="1714" departLane="random" departSpeed="1" color="0,1,0">
<walk from="119883577#4" busStop="119883577#4" speed="1.5"/>
<stop busStop="119883577#4" duration="1000"/>
</person>
<person id="person_55" depart="1714" departLane="random" departSpeed="1" color="0,1,0">
<walk from="119883577#4" busStop="119883577#4" speed="1.5"/>
<ride line="trad_line" busStop="119883577#4" to="119883577#4"/>
<walk edges="119883577#4" speed="1.5"/>
</person>
<person id="person_56" depart="1714" departLane="random" departSpeed="1" color="0,1,0">
<walk from="119883577#4" busStop="119883577#4" speed="1.5"/>
<ride line="trad_line" busStop="119883577#4" to="119883577#4"/>
<walk edges="119883577#4" speed="1.5"/>
</person>
<person id="person_57" depart="1912" departLane="random" departSpeed="1" color="0,1,0">
<walk from="704746733#0" busStop="704746733#0" speed="1.5"/>
<stop busStop="704746733#0" duration="1000"/>
</person>
<person id="person_58" depart="1934" departLane="random" departSpeed="1" color="0,1,0">
<walk from="704746733#0" busStop="704746733#0" speed="1.5"/>
<stop busStop="704746733#0" duration="1000"/>
</person>
<person id="person_59" depart="1934" departLane="random" departSpeed="1" color="0,1,0">
<walk from="704746733#0" busStop="704746733#0" speed="1.5"/>
<stop busStop="704746733#0" duration="1000"/>
</person>
<person id="person_60" depart="1934" departLane="random" departSpeed="1" color="0,1,0">
<walk from="704746733#0" busStop="704746733#0" speed="1.5"/>
<stop busStop="704746733#0" duration="1000"/>
</person>
</routes>