<?xml version="1.0" ?>
<!-- 
    RIDER
    <person id="person_898" depart="1" departLane="random" departSpeed="1.00" color="0,1,0">
        <walk from="119883577#8" busStop="119883577#8" speed="1.5"/>
        <ride line="trad_line" busStop="119883577#8" to="-187486758#1"/>
        <walk edges="-187486758#1" speed="1.5"/>
     </person>

     WALKER
    <person id="person_473" depart="2" departLane="random" departSpeed="1.00" color="1,0,0">
        <walk from="31"327474#1" busStop="31"327474#1" speed="1.5"/>
        <stop busStop="31"327474#1" duration="503"/>
        <walk from="31"327474#1" to="729164042#1" speed="1.5"/>
    </person>

    STANDER
    <person id="person_610" depart="2" departLane="random" departSpeed="1.00" color="1,0,1">
        <walk from="82694445#1" busStop="82694445#1" speed="1.5"/>
        <stop busStop="82694445#1" duration="1000"/>
    </person> -->
<routes>
    <!-- 1 -->
    <person id="person_1" depart="10" departLane="random" departSpeed="1.00" color="0,1,0">
        <walk from="29377703#1" busStop="29377703#1" speed="1.5"/>
        <stop busStop="29377703#1" duration="1000"/>
    </person>
    <person id="person_2" depart="10" departLane="random" departSpeed="1.00" color="0,1,0">
        <walk from="29377703#1" busStop="29377703#1" speed="1.5"/>
        <stop busStop="29377703#1" duration="1000"/>
    </person>
    <person id="person_3" depart="10" departLane="random" departSpeed="1.00" color="0,1,0">
        <walk from="29377703#1" busStop="29377703#1" speed="1.5"/>
        <stop busStop="29377703#1" duration="1000"/>
    </person>

    <!-- 2 -->
    <person id="person_4" depart="32" departLane="random" departSpeed="1.00" color="0,1,0">
        <walk from="29377703#2" busStop="29377703#2" speed="1.5"/>
        <stop busStop="29377703#2" duration="1000"/>
    </person>
    <person id="person_5" depart="32" departLane="random" departSpeed="1.00" color="0,1,0">
        <walk from="29377703#2" busStop="29377703#2" speed="1.5"/>
        <stop busStop="29377703#2" duration="1000"/>
    </person>
    <person id="person_6" depart="32" departLane="random" departSpeed="1.00" color="0,1,0">
        <walk from="29377703#2" busStop="29377703#2" speed="1.5"/>
        <stop busStop="29377703#2" duration="1000"/>
    </person>
    <person id="person_7" depart="32" departLane="random" departSpeed="1.00" color="0,1,0">
        <walk from="29377703#2" busStop="29377703#2" speed="1.5"/>
        <stop busStop="29377703#2" duration="1000"/>
    </person>
    <person id="person_8" depart="32" departLane="random" departSpeed="1.00" color="0,1,0">
        <walk from="29377703#2" busStop="29377703#2" speed="1.5"/>
        <stop busStop="29377703#2" duration="1000"/>
    </person>

    <!-- 3 -->
    <person id="person_9" depart="60" departLane="random" departSpeed="1.00" color="0,1,0">
        <walk from="29377703#4" busStop="29377703#4" speed="1.5"/>
        <stop busStop="29377703#4" duration="1000"/>
    </person>
    <person id="person_10" depart="60" departLane="random" departSpeed="1.00" color="0,1,0">
        <walk from="29377703#4" busStop="29377703#4" speed="1.5"/>
        <stop busStop="29377703#4" duration="1000"/>
    </person>
    
    <!-- 4 -->
    <person id="person_11" depart="120" departLane="random" departSpeed="1.00" color="0,1,0">
        <walk from="303412427#0" busStop="303412427#0" speed="1.5"/>
        <stop busStop="303412427#0" duration="1000"/>
    </person>
    <person id="person_12" depart="120" departLane="random" departSpeed="1.00" color="0,1,0">
        <walk from="303412427#0" busStop="303412427#0" speed="1.5"/>
        <stop busStop="303412427#0" duration="1000"/>
    </person>
    <person id="person_13" depart="120" departLane="random" departSpeed="1.00" color="0,1,0">
        <walk from="303412427#0" busStop="303412427#0" speed="1.5"/>
        <stop busStop="303412427#0" duration="1000"/>
    </person>

    <!-- 5 -->
    <person id="person_14" depart="140" departLane="random" departSpeed="1.00" color="0,1,0">
        <walk from="303412427#2" busStop="303412427#2" speed="1.5"/>
        <stop busStop="303412427#2" duration="1000"/>
    </person>
    
    <!-- 6 -->
    <person id="person_15" depart="180" departLane="random" departSpeed="1.00" color="0,1,0">
        <walk from="303412427#3" busStop="303412427#3" speed="1.5"/>
        <stop busStop="303412427#3" duration="1000"/>
    </person>
    <person id="person_16" depart="180" departLane="random" departSpeed="1.00" color="0,1,0">
        <walk from="303412427#3" busStop="303412427#3" speed="1.5"/>
        <stop busStop="303412427#3" duration="1000"/>
    </person>

    <!-- 7 -->
    <person id="person_17" depart="240" departLane="random" departSpeed="1.00" color="0,1,0">
        <walk from="303412427#5" busStop="303412427#5" speed="1.5"/>
        <stop busStop="303412427#5" duration="1000"/>
    </person>

    <!-- 8 -->
    <person id="person_18" depart="280" departLane="random" departSpeed="1.00" color="0,1,0">
        <walk from="303412427#6" busStop="303412427#6" speed="1.5"/>
        <stop busStop="303412427#6" duration="1000"/>
    </person>
    <person id="person_19" depart="280" departLane="random" departSpeed="1.00" color="0,1,0">
        <walk from="303412427#6" busStop="303412427#6" speed="1.5"/>
        <stop busStop="303412427#6" duration="1000"/>
    </person>

    <!-- 9 -->
    <person id="person_20" depart="400" departLane="random" departSpeed="1.00" color="0,1,0">
        <walk from="615456195" busStop="615456195" speed="1.5"/>
        <stop busStop="615456195" duration="1000"/>
    </person>
    <person id="person_21" depart="400" departLane="random" departSpeed="1.00" color="0,1,0">
        <walk from="615456195" busStop="615456195" speed="1.5"/>
        <stop busStop="615456195" duration="1000"/>
    </person>
    <person id="person_22" depart="400" departLane="random" departSpeed="1.00" color="0,1,0">
        <walk from="615456195" busStop="615456195" speed="1.5"/>
        <stop busStop="615456195" duration="1000"/>
    </person>
    <person id="person_23" depart="400" departLane="random" departSpeed="1.00" color="0,1,0">
        <walk from="615456195" busStop="615456195" speed="1.5"/>
        <stop busStop="615456195" duration="1000"/>
    </person>
    <person id="person_24" depart="400" departLane="random" departSpeed="1.00" color="0,1,0">
        <walk from="615456195" busStop="615456195" speed="1.5"/>
        <stop busStop="615456195" duration="1000"/>
    </person>
    <person id="person_25" depart="400" departLane="random" departSpeed="1.00" color="0,1,0">
        <walk from="615456195" busStop="615456195" speed="1.5"/>
        <stop busStop="615456195" duration="1000"/>
    </person>
    <person id="person_26" depart="400" departLane="random" departSpeed="1.00" color="0,1,0">
        <walk from="615456195" busStop="615456195" speed="1.5"/>
        <stop busStop="615456195" duration="1000"/>
    </person>

    <!-- 10 -->
    <person id="person_27" depart="800" departLane="random" departSpeed="1.00" color="0,1,0">
        <walk from="615456193#2" busStop="615456193#2" speed="1.5"/>
        <stop busStop="615456193#2" duration="1000"/>
    </person>

    <!-- 11 -->
    <person id="person_28" depart="800" departLane="random" departSpeed="1.00" color="0,1,0">
        <walk from="368461882#0" busStop="368461882#0" speed="1.5"/>
        <stop busStop="368461882#0" duration="1000"/>
    </person>

     <!-- 12 -->
    <person id="person_29" depart="800" departLane="random" departSpeed="1.00" color="0,1,0">
        <walk from="694268909#0" busStop="694268909#0" speed="1.5"/>
        <stop busStop="694268909#0" duration="1000"/>
    </person>
    <person id="person_30" depart="800" departLane="random" departSpeed="1.00" color="0,1,0">
        <walk from="694268909#0" busStop="694268909#0" speed="1.5"/>
        <stop busStop="694268909#0" duration="1000"/>
    </person>
    <person id="person_31" depart="800" departLane="random" departSpeed="1.00" color="0,1,0">
        <walk from="694268909#0" busStop="694268909#0" speed="1.5"/>
        <stop busStop="694268909#0" duration="1000"/>
    </person>
    <person id="person_32" depart="800" departLane="random" departSpeed="1.00" color="0,1,0">
        <walk from="694268909#0" busStop="694268909#0" speed="1.5"/>
        <stop busStop="694268909#0" duration="1000"/>
    </person>

     <!-- 13 -->
    <person id="person_33" depart="1100" departLane="random" departSpeed="1.00" color="0,1,0">
        <walk from="82694445#1" busStop="82694445#1" speed="1.5"/>
        <stop busStop="82694445#1" duration="1000"/>
    </person>
    <person id="person_34" depart="1100" departLane="random" departSpeed="1.00" color="0,1,0">
        <walk from="82694445#1" busStop="82694445#1" speed="1.5"/>
        <stop busStop="82694445#1" duration="1000"/>
    </person>

    <!-- 14 -->
    <person id="person_35" depart="1200" departLane="random" departSpeed="1.00" color="0,1,0">
        <walk from="1176045777" busStop="1176045777" speed="1.5"/>
        <stop busStop="1176045777" duration="1000"/>
    </person>
    <person id="person_36" depart="1200" departLane="random" departSpeed="1.00" color="0,1,0">
        <walk from="1176045777" busStop="1176045777" speed="1.5"/>
        <stop busStop="1176045777" duration="1000"/>
    </person>
    <person id="person_37" depart="1200" departLane="random" departSpeed="1.00" color="0,1,0">
        <walk from="1176045777" busStop="1176045777" speed="1.5"/>
        <stop busStop="1176045777" duration="1000"/>
    </person>
    <person id="person_38" depart="1200" departLane="random" departSpeed="1.00" color="0,1,0">
        <walk from="1176045777" busStop="1176045777" speed="1.5"/>
        <stop busStop="1176045777" duration="1000"/>
    </person>
    <person id="person_39" depart="1200" departLane="random" departSpeed="1.00" color="0,1,0">
        <walk from="1176045777" busStop="1176045777" speed="1.5"/>
        <stop busStop="1176045777" duration="1000"/>
    </person>
    <person id="person_40" depart="1200" departLane="random" departSpeed="1.00" color="0,1,0">
        <walk from="1176045777" busStop="1176045777" speed="1.5"/>
        <stop busStop="1176045777" duration="1000"/>
    </person>
    <person id="person_41" depart="1200" departLane="random" departSpeed="1.00" color="0,1,0">
        <walk from="1176045777" busStop="1176045777" speed="1.5"/>
        <stop busStop="1176045777" duration="1000"/>
    </person>

    <!-- 15 -->
    <person id="person_42" depart="1300" departLane="random" departSpeed="1.00" color="0,1,0">
        <walk from="82694458#0" busStop="82694458#0" speed="1.5"/>
        <stop busStop="82694458#0" duration="1000"/>
    </person>
    <person id="person_43" depart="1300" departLane="random" departSpeed="1.00" color="0,1,0">
        <walk from="82694458#0" busStop="82694458#0" speed="1.5"/>
        <stop busStop="82694458#0" duration="1000"/>
    </person>
    <person id="person_44" depart="1300" departLane="random" departSpeed="1.00" color="0,1,0">
        <walk from="82694458#0" busStop="82694458#0" speed="1.5"/>
        <stop busStop="82694458#0" duration="1000"/>
    </person>
    <person id="person_45" depart="1300" departLane="random" departSpeed="1.00" color="0,1,0">
        <walk from="82694458#0" busStop="82694458#0" speed="1.5"/>
        <stop busStop="82694458#0" duration="1000"/>
    </person>

    <!-- 16 -->
    <person id="person_46" depart="1400" departLane="random" departSpeed="1.00" color="0,1,0">
        <walk from="575729552#1" busStop="575729552#1" speed="1.5"/>
        <stop busStop="575729552#1" duration="1000"/>
    </person>
    <person id="person_47" depart="1400" departLane="random" departSpeed="1.00" color="0,1,0">
        <walk from="575729552#1" busStop="575729552#1" speed="1.5"/>
        <stop busStop="575729552#1" duration="1000"/>
    </person>
    <person id="person_48" depart="1400" departLane="random" departSpeed="1.00" color="0,1,0">
        <walk from="575729552#1" busStop="575729552#1" speed="1.5"/>
        <stop busStop="575729552#1" duration="1000"/>
    </person>
    <person id="person_49" depart="1400" departLane="random" departSpeed="1.00" color="0,1,0">
        <walk from="575729552#1" busStop="575729552#1" speed="1.5"/>
        <stop busStop="575729552#1" duration="1000"/>
    </person>
    <person id="person_50" depart="1400" departLane="random" departSpeed="1.00" color="0,1,0">
        <walk from="575729552#1" busStop="575729552#1" speed="1.5"/>
        <stop busStop="575729552#1" duration="1000"/>
    </person>
    <person id="person_51" depart="1400" departLane="random" departSpeed="1.00" color="0,1,0">
        <walk from="575729552#1" busStop="575729552#1" speed="1.5"/>
        <stop busStop="575729552#1" duration="1000"/>
    </person>
    <person id="person_52" depart="1400" departLane="random" departSpeed="1.00" color="0,1,0">
        <walk from="575729552#1" busStop="575729552#1" speed="1.5"/>
        <stop busStop="575729552#1" duration="1000"/>
    </person>
    <person id="person_53" depart="1400" departLane="random" departSpeed="1.00" color="0,1,0">
        <walk from="575729552#1" busStop="575729552#1" speed="1.5"/>
        <stop busStop="575729552#1" duration="1000"/>
    </person>
    <person id="person_54" depart="1400" departLane="random" departSpeed="1.00" color="0,1,0">
        <walk from="575729552#1" busStop="575729552#1" speed="1.5"/>
        <stop busStop="575729552#1" duration="1000"/>
    </person>
    <person id="person_55" depart="1400" departLane="random" departSpeed="1.00" color="0,1,0">
        <walk from="575729552#1" busStop="575729552#1" speed="1.5"/>
        <stop busStop="575729552#1" duration="1000"/>
    </person>

     <!-- 17 -->
    <person id="person_56" depart="1600" departLane="random" departSpeed="1.00" color="0,1,0">
        <walk from="-4332734#1" busStop="-4332734#1" speed="1.5"/>
        <stop busStop="-4332734#1" duration="1000"/>
    </person>
    <person id="person_57" depart="1600" departLane="random" departSpeed="1.00" color="0,1,0">
        <walk from="-4332734#1" busStop="-4332734#1" speed="1.5"/>
        <stop busStop="-4332734#1" duration="1000"/>
    </person>
    <person id="person_58" depart="1600" departLane="random" departSpeed="1.00" color="0,1,0">
        <walk from="-4332734#1" busStop="-4332734#1" speed="1.5"/>
        <stop busStop="-4332734#1" duration="1000"/>
    </person>
    <person id="person_59" depart="1600" departLane="random" departSpeed="1.00" color="0,1,0">
        <walk from="-4332734#1" busStop="-4332734#1" speed="1.5"/>
        <stop busStop="-4332734#1" duration="1000"/>
    </person>
    <person id="person_60" depart="1600" departLane="random" departSpeed="1.00" color="0,1,0">
        <walk from="-4332734#1" busStop="-4332734#1" speed="1.5"/>
        <stop busStop="-4332734#1" duration="1000"/>
    </person>

     <!-- 18 -->
    <person id="person_61" depart="1700" departLane="random" departSpeed="1.00" color="0,1,0">
        <walk from="-48630242#1" busStop="-48630242#1" speed="1.5"/>
        <stop busStop="-48630242#1" duration="1000"/>
    </person>
    <person id="person_32" depart="1700" departLane="random" departSpeed="1.00" color="0,1,0">
        <walk from="-48630242#1" busStop="-48630242#1" speed="1.5"/>
        <stop busStop="-48630242#1" duration="1000"/>
    </person>

    <!-- 19 -->
    <person id="person_63" depart="1900" departLane="random" departSpeed="1.00" color="0,1,0">
        <walk from="4243614#1" busStop="4243614#1" speed="1.5"/>
        <stop busStop="4243614#1" duration="1000"/>
    </person>
    <person id="person_64" depart="1900" departLane="random" departSpeed="1.00" color="0,1,0">
        <walk from="4243614#1" busStop="4243614#1" speed="1.5"/>
        <stop busStop="4243614#1" duration="1000"/>
    </person>
    <person id="person_65" depart="1900" departLane="random" departSpeed="1.00" color="0,1,0">
        <walk from="4243614#1" busStop="4243614#1" speed="1.5"/>
        <stop busStop="4243614#1" duration="1000"/>
    </person>

    <!-- 19 -->
    <person id="person_66" depart="2000" departLane="random" departSpeed="1.00" color="0,1,0">
        <walk from="820063579#0" busStop="820063579#0" speed="1.5"/>
        <stop busStop="820063579#0" duration="1000"/>
    </person>

    <!-- 20 -->
    <person id="person_67" depart="2100" departLane="random" departSpeed="1.00" color="0,1,0">
        <walk from="107396681#6" busStop="107396681#6" speed="1.5"/>
        <stop busStop="107396681#6" duration="1000"/>
    </person>
    <person id="person_68" depart="2100" departLane="random" departSpeed="1.00" color="0,1,0">
        <walk from="107396681#6" busStop="107396681#6" speed="1.5"/>
        <stop busStop="107396681#6" duration="1000"/>
    </person>
    <person id="person_69" depart="2100" departLane="random" departSpeed="1.00" color="0,1,0">
        <walk from="107396681#6" busStop="107396681#6" speed="1.5"/>
        <stop busStop="107396681#6" duration="1000"/>
    </person>
    <person id="person_70" depart="2100" departLane="random" departSpeed="1.00" color="0,1,0">
        <walk from="107396681#6" busStop="107396681#6" speed="1.5"/>
        <stop busStop="107396681#6" duration="1000"/>
    </person>

    <!-- 21 -->
    <person id="person_71" depart="2100" departLane="random" departSpeed="1.00" color="0,1,0">
        <walk from="107396681#7" busStop="107396681#7" speed="1.5"/>
        <stop busStop="107396681#7" duration="1000"/>
    </person>
    <person id="person_72" depart="2100" departLane="random" departSpeed="1.00" color="0,1,0">
        <walk from="107396681#7" busStop="107396681#7" speed="1.5"/>
        <stop busStop="107396681#7" duration="1000"/>
    </person>

    <!-- 22 -->
    <person id="person_73" depart="2200" departLane="random" departSpeed="1.00" color="0,1,0">
        <walk from="161754854#1" busStop="161754854#1" speed="1.5"/>
        <stop busStop="161754854#1" duration="1000"/>
    </person>

    <!-- 23 -->
    <person id="person_74" depart="2600" departLane="random" departSpeed="1.00" color="0,1,0">
        <walk from="126342421" busStop="161754854#1" speed="1.5"/>
        <stop busStop="126342421" duration="1000"/>
    </person>
    <person id="person_75" depart="2600" departLane="random" departSpeed="1.00" color="0,1,0">
        <walk from="126342421" busStop="161754854#1" speed="1.5"/>
        <stop busStop="126342421" duration="1000"/>
    </person>

    <!-- 24 -->
    <person id="person_76" depart="2800" departLane="random" departSpeed="1.00" color="0,1,0">
        <walk from="119883577#7" busStop="119883577#7" speed="1.5"/>
        <stop busStop="119883577#7" duration="1000"/>
    </person>

    <!-- 25 -->
    <person id="person_77" depart="3000" departLane="random" departSpeed="1.00" color="0,1,0">
        <walk from="5019952#4" busStop="5019952#4" speed="1.5"/>
        <stop busStop="5019952#4" duration="1000"/>
    </person>
    <person id="person_78" depart="3000" departLane="random" departSpeed="1.00" color="0,1,0">
        <walk from="5019952#4" busStop="5019952#4" speed="1.5"/>
        <stop busStop="5019952#4" duration="1000"/>
    </person>

</routes>