<?xml version='1.0' encoding='utf-8'?>
<routes>
<person id="person_1" depart="0" departLane="random" departSpeed="1" color="1,0,0">
<walk from="303412427#1" busStop="303412427#1" speed="1.5" />
<stop busStop="303412427#1" duration="7200" />
</person>
<person id="person_2" depart="0" departLane="random" departSpeed="1" color="0,1,0">
<walk from="303412427#3" busStop="303412427#3" speed="1.5" />
<ride lines="modernjeepney_0" from="303412427#3" to="924607337#4" />
<walk edges="924607337#4" speed="1.5" />
</person>
<person id="person_3" depart="0" departLane="random" departSpeed="1" color="0,1,0">
<walk from="303412427#10" busStop="303412427#10" speed="1.5" />
<ride lines="modernjeepney_0" from="303412427#10" to="924607337#4" />
<walk edges="924607337#4" speed="1.5" />
</person>
<person id="person_4" depart="0" departLane="random" departSpeed="1" color="0,1,0">
<walk from="303412427#10" busStop="303412427#10" speed="1.5" />
<ride lines="modernjeepney_0" from="303412427#10" to="136822571#1" />
<walk edges="136822571#1" speed="1.5" />
</person>
<person id="person_5" depart="0" departLane="random" departSpeed="1" color="0,1,0">
<walk from="303412427#10" busStop="303412427#10" speed="1.5" />
<ride lines="modernjeepney_0" from="303412427#10" to="136822571#1" />
<walk edges="136822571#1" speed="1.5" />
</person>
<person id="person_6" depart="0" departLane="random" departSpeed="1" color="1,0,0">
<walk from="303412427#15" busStop="303412427#15" speed="1.5" />
<stop busStop="303412427#15" duration="7200" />
</person>
<person id="person_7" depart="0" departLane="random" departSpeed="1" color="1,0,0">
<walk from="303412427#16" busStop="303412427#16" speed="1.5" />
<stop busStop="303412427#16" duration="7200" />
</person>
<person id="person_8" depart="0" departLane="random" departSpeed="1" color="1,0,0">
<walk from="303412427#16" busStop="303412427#16" speed="1.5" />
<stop busStop="303412427#16" duration="7200" />
</person>
<person id="person_9" depart="0" departLane="random" departSpeed="1" color="0,1,0">
<walk from="924607337#3" busStop="924607337#4" speed="1.5" />
<ride lines="modernjeepney_0" from="924607337#4" to="923261416" />
<walk edges="923261416" speed="1.5" />
</person>
<person id="person_10" depart="0" departLane="random" departSpeed="1" color="0,1,0">
<walk from="615456195" busStop="615456195" speed="1.5" />
<ride lines="modernjeepney_0" from="615456195" to="923261416" />
<walk edges="923261416" speed="1.5" />
</person>
<person id="person_11" depart="0" departLane="random" departSpeed="1" color="0,1,0">
<walk from="615456195" busStop="615456195" speed="1.5" />
<ride lines="modernjeepney_0" from="615456195" to="923261416" />
<walk edges="923261416" speed="1.5" />
</person>
<person id="person_12" depart="0" departLane="random" departSpeed="1" color="0,1,0">
<walk from="615456195" busStop="615456195" speed="1.5" />
<ride lines="modernjeepney_0" from="615456195" to="82694445#2" />
<walk edges="82694445#2" speed="1.5" />
</person>
<person id="person_13" depart="0" departLane="random" departSpeed="1" color="0,1,0">
<walk from="615456195" busStop="615456195" speed="1.5" />
<ride lines="modernjeepney_0" from="615456195" to="136822571#1" />
<walk edges="136822571#1" speed="1.5" />
</person>
<person id="person_14" depart="0" departLane="random" departSpeed="1" color="0,1,0">
<walk from="615456195" busStop="615456195" speed="1.5" />
<ride lines="modernjeepney_0" from="615456195" to="136822571#1" />
<walk edges="136822571#1" speed="1.5" />
</person>
<person id="person_15" depart="0" departLane="random" departSpeed="1" color="0,1,0">
<walk from="615456195" busStop="615456195" speed="1.5" />
<ride lines="modernjeepney_0" from="615456195" to="136822571#1" />
<walk edges="136822571#1" speed="1.5" />
</person>
<person id="person_16" depart="0" departLane="random" departSpeed="1" color="1,0,0">
<walk from="615456195" busStop="615456195" speed="1.5" />
<stop busStop="615456195" duration="7200" />
</person>
<person id="person_17" depart="0" departLane="random" departSpeed="1" color="1,0,0">
<walk from="368461882#2" busStop="368461882#2" speed="1.5" />
<stop busStop="368461882#2" duration="7200" />
</person>
<person id="person_18" depart="0" departLane="random" departSpeed="1" color="0,1,0">
<walk from="923261416" busStop="923261416" speed="1.5" />
<ride lines="modernjeepney_0" from="923261416" to="-1076442002" />
<walk edges="-1076442002" speed="1.5" />
</person>
<person id="person_19" depart="0" departLane="random" departSpeed="1" color="1,0,0">
<walk from="923261416" busStop="923261416" speed="1.5" />
<stop busStop="923261416" duration="7200" />
</person>
<person id="person_20" depart="0" departLane="random" departSpeed="1" color="0,1,0">
<walk from="923261416" busStop="923261416" speed="1.5" />
<ride lines="modernjeepney_0" from="923261416" to="119883577#4" />
<walk edges="119883577#4" speed="1.5" />
</person>
<person id="person_21" depart="0" departLane="random" departSpeed="1" color="1,0,0">
<walk from="923261416" busStop="923261416" speed="1.5" />
<stop busStop="923261416" duration="7200" />
</person>
<person id="person_22" depart="0" departLane="random" departSpeed="1" color="1,0,0">
<walk from="694268909#0" busStop="694268909#0" speed="1.5" />
<stop busStop="694268909#0" duration="7200" />
</person>
<person id="person_23" depart="0" departLane="random" departSpeed="1" color="0,1,0">
<walk from="82694445#1" busStop="82694445#1" speed="1.5" />
<ride lines="modernjeepney_0" from="82694445#1" to="119883577#4" />
<walk edges="119883577#4" speed="1.5" />
</person>
<person id="person_24" depart="0" departLane="random" departSpeed="1" color="0,1,0">
<walk from="82694445#2" busStop="82694445#2" speed="1.5" />
<ride lines="modernjeepney_0" from="82694445#2" to="-4332734#4" />
<walk edges="-4332734#4" speed="1.5" />
</person>
<person id="person_25" depart="0" departLane="random" departSpeed="1" color="0,1,0">
<walk from="82694458#0" busStop="82694458#0" speed="1.5" />
<ride lines="modernjeepney_0" from="82694458#0" to="-4332734#4" />
<walk edges="-4332734#4" speed="1.5" />
</person>
<person id="person_26" depart="0" departLane="random" departSpeed="1" color="1,0,0">
<walk from="575729552#1" busStop="575729552#1" speed="1.5" />
<stop busStop="575729552#1" duration="7200" />
</person>
<person id="person_27" depart="0" departLane="random" departSpeed="1" color="1,0,0">
<walk from="575729552#1" busStop="575729552#1" speed="1.5" />
<stop busStop="575729552#1" duration="7200" />
</person>
<person id="person_28" depart="0" departLane="random" departSpeed="1" color="1,0,0">
<walk from="575729552#1" busStop="575729552#1" speed="1.5" />
<stop busStop="575729552#1" duration="7200" />
</person>
<person id="person_29" depart="0" departLane="random" departSpeed="1" color="1,0,0">
<walk from="575729552#1" busStop="575729552#1" speed="1.5" />
<stop busStop="575729552#1" duration="7200" />
</person>
<person id="person_30" depart="0" departLane="random" departSpeed="1" color="1,0,0">
<walk from="4086429" busStop="4086429" speed="1.5" />
<stop busStop="4086429" duration="7200" />
</person>
<person id="person_31" depart="0" departLane="random" departSpeed="1" color="1,0,0">
<walk from="4086429" busStop="4086429" speed="1.5" />
<stop busStop="4086429" duration="7200" />
</person>
<person id="person_32" depart="04" departLane="random" departSpeed="1" color="1,0,0">
<walk from="-940627086" busStop="-940627086" speed="1.5" />
<stop busStop="-940627086" duration="7200" />
</person>
<person id="person_33" depart="0" departLane="random" departSpeed="1" color="1,0,0">
<walk from="-4332734#4" busStop="-4332734#4" speed="1.5" />
<stop busStop="-4332734#4" duration="7200" />
</person>
<person id="person_34" depart="0" departLane="random" departSpeed="1" color="1,0,0">
<walk from="-4332734#0" busStop="-4332734#0" speed="1.5" />
<stop busStop="-4332734#0" duration="7200" />
</person>
<person id="person_35" depart="0" departLane="random" departSpeed="1" color="1,0,0">
<walk from="-48630242#3" busStop="-48630242#3" speed="1.5" />
<stop busStop="-48630242#3" duration="7200" />
</person>
<person id="person_36" depart="0" departLane="random" departSpeed="1" color="1,0,0">
<walk from="-48630242#3" busStop="-48630242#3" speed="1.5" />
<stop busStop="-48630242#3" duration="7200" />
</person>
<person id="person_37" depart="0" departLane="random" departSpeed="1" color="0,1,0">
<walk from="-48630242#2" busStop="-48630242#2" speed="1.5" />
<ride lines="modernjeepney_0" from="-48630242#2" to="-187486758#1" />
<walk edges="-187486758#1" speed="1.5" />
</person>
<person id="person_38" depart="0" departLane="random" departSpeed="1" color="1,0,0">
<walk from="-48630242#2" busStop="-48630242#2" speed="1.5" />
<stop busStop="-48630242#2" duration="7200" />
</person>
<person id="person_39" depart="0" departLane="random" departSpeed="1" color="1,0,0">
<walk from="-48630242#2" busStop="-48630242#2" speed="1.5" />
<stop busStop="-48630242#2" duration="7200" />
</person>
<person id="person_40" depart="0" departLane="random" departSpeed="1" color="1,0,0">
<walk from="-48630242#2" busStop="-48630242#2" speed="1.5" />
<stop busStop="-48630242#2" duration="7200" />
</person>
<person id="person_41" depart="0" departLane="random" departSpeed="1" color="1,0,0">
<walk from="-48630242#1" busStop="-48630242#1" speed="1.5" />
<stop busStop="-48630242#1" duration="7200" />
</person>
<person id="person_42" depart="0" departLane="random" departSpeed="1" color="1,0,0">
<walk from="-48630242#1" busStop="-48630242#1" speed="1.5" />
<stop busStop="-48630242#1" duration="7200" />
</person>
<person id="person_43" depart="0" departLane="random" departSpeed="1" color="1,0,0">
<walk from="-1076442002" busStop="-1076442002" speed="1.5" />
<stop busStop="-1076442002" duration="7200" />
</person>
<person id="person_44" depart="0" departLane="random" departSpeed="1" color="1,0,0">
<walk from="-4588647#3" busStop="-4588647#3" speed="1.5" />
<stop busStop="-4588647#3" duration="7200" />
</person>
<person id="person_45" depart="0" departLane="random" departSpeed="1" color="1,0,0">
<walk from="-4588647#0" busStop="-4588647#0" speed="1.5" />
<stop busStop="-4588647#0" duration="7200" />
</person>
<person id="person_46" depart="0" departLane="random" departSpeed="1" color="1,0,0">
<walk from="136822582" busStop="136822582" speed="1.5" />
<stop busStop="136822582" duration="7200" />
</person>
<person id="person_47" depart="0" departLane="random" departSpeed="1" color="0,1,0">
<walk from="1174874706" busStop="136822582" speed="1.5" />
<ride lines="modernjeepney_0" from="136822582" to="-187486758#1" />
<walk edges="-187486758#1" speed="1.5" />
</person>
<person id="person_48" depart="0" departLane="random" departSpeed="1" color="1,0,0">
<walk from="161754856" busStop="161754856" speed="1.5" />
<stop busStop="161754856" duration="7200" />
</person>
<person id="person_49" depart="0" departLane="random" departSpeed="1" color="1,0,0">
<walk from="136822571#1" busStop="136822571#1" speed="1.5" />
<stop busStop="136822571#1" duration="7200" />
</person>
<person id="person_50" depart="0" departLane="random" departSpeed="1" color="1,0,0">
<walk from="136822571#1" busStop="136822571#1" speed="1.5" />
<stop busStop="136822571#1" duration="7200" />
</person>
<person id="person_51" depart="0" departLane="random" departSpeed="1" color="1,0,0">
<walk from="161754854#2" busStop="161754854#2" speed="1.5" />
<stop busStop="161754854#2" duration="7200" />
</person>
<person id="person_52" depart="0" departLane="random" departSpeed="1" color="1,0,0">
<walk from="161754854#2" busStop="161754854#2" speed="1.5" />
<stop busStop="161754854#2" duration="7200" />
</person>
<person id="person_53" depart="0" departLane="random" departSpeed="1" color="1,0,0">
<walk from="161754854#2" busStop="161754854#2" speed="1.5" />
<stop busStop="161754854#2" duration="7200" />
</person>
<person id="person_54" depart="0" departLane="random" departSpeed="1" color="1,0,0">
<walk from="119883577#4" busStop="119883577#4" speed="1.5" />
<stop busStop="119883577#4" duration="7200" />
</person>
<person id="person_55" depart="0" departLane="random" departSpeed="1" color="0,1,0">
<walk from="119883577#4" busStop="119883577#4" speed="1.5" />
<ride lines="modernjeepney_0" from="119883577#4" to="-187486758#1" />
<walk edges="-187486758#1" speed="1.5" />
</person>
<person id="person_56" depart="0" departLane="random" departSpeed="1" color="0,1,0">
<walk from="119883577#4" busStop="119883577#4" speed="1.5" />
<ride lines="modernjeepney_0" from="119883577#4" to="-187486758#1" />
<walk edges="-187486758#1" speed="1.5" />
</person>
<person id="person_57" depart="0" departLane="random" departSpeed="1" color="1,0,0">
<walk from="704746733#0" busStop="704746733#0" speed="1.5" />
<stop busStop="704746733#0" duration="7200" />
</person>
<person id="person_58" depart="0" departLane="random" departSpeed="1" color="1,0,0">
<walk from="704746733#0" busStop="704746733#0" speed="1.5" />
<stop busStop="704746733#0" duration="7200" />
</person>
<person id="person_59" depart="0" departLane="random" departSpeed="1" color="0,1,0">
<walk from="704746733#0" busStop="704746733#0" speed="1.5" />
<stop busStop="704746733#0" duration="7200" />
</person>
<person id="person_60" depart="0" departLane="random" departSpeed="1" color="0,1,0">
<walk from="704746733#0" busStop="704746733#0" speed="1.5" />
<stop busStop="704746733#0" duration="7200" />
</person>
</routes>