<?xml version='1.0' encoding='utf-8'?>
<routes>
    
    <person id="person_1" depart="0" departLane="random" departSpeed="1.00" color="1,0,1">
        <walk from="29377703#2" busStop="29377703#2" speed="1.5" />
        <stop busStop="29377703#2" duration="7200" />
    </person>
    <person id="person_2" depart="0" departLane="random" departSpeed="1.00" color="1,0,1">
        <walk from="29377703#2" busStop="29377703#2" speed="1.5" />
        <stop busStop="29377703#2" duration="7200" />
    </person>

    
    <person id="person_3" depart="0" departLane="random" departSpeed="1.00" color="1,0,1">
        <walk from="29377703#4" busStop="29377703#4" speed="1.5" />
        <stop busStop="29377703#4" duration="7200" />
    </person>
    <person id="person_4" depart="0" departLane="random" departSpeed="1.00" color="1,0,1">
        <walk from="29377703#4" busStop="29377703#4" speed="1.5" />
        <stop busStop="29377703#4" duration="7200" />
    </person>

    
    <person id="person_5" depart="0" departLane="random" departSpeed="1.00" color="1,0,1">
        <walk from="303412427#3" busStop="303412427#3" speed="1.5" />
        <stop busStop="303412427#3" duration="7200" />
    </person>

    
    <person id="person_6" depart="0" departLane="random" departSpeed="1.00" color="1,0,1">
        <walk from="924607337#3" busStop="924607337#3" speed="1.5" />
        <stop busStop="924607337#3" duration="7200" />
    </person>

    
    <person id="person_7" depart="0" departLane="random" departSpeed="1.00" color="0,1,0">
        <walk from="694268909#0" busStop="694268909#0" speed="1.5" />
        <ride lines="modernjeepney_0" from="694268909#0" to="4332731" />
        <walk edges="4332731" speed="1.5" />
    </person>
    <person id="person_8" depart="0" departLane="random" departSpeed="1.00" color="0,1,0">
        <walk from="694268909#0" busStop="694268909#0" speed="1.5" />
        <ride lines="modernjeepney_0" from="694268909#0" to="4243614#1" />
        <walk edges="4243614#1" speed="1.5" />
    </person>
    <person id="person_9" depart="0" departLane="random" departSpeed="1.00" color="0,1,0">
        <walk from="694268909#0" busStop="694268909#0" speed="1.5" />
        <ride lines="modernjeepney_0" from="694268909#0" to="1174874705" />
        <walk edges="1174874705" speed="1.5" />
    </person>

    
    <person id="person_10" depart="0" departLane="random" departSpeed="1.00" color="0,1,0">
        <walk from="82694445#1" busStop="82694445#1" speed="1.5" />
        <ride lines="modernjeepney_0" from="82694445#1" to="-4332734#1" />
        <walk edges="-4332734#1" speed="1.5" />
    </person>
     <person id="person_11" depart="0" departLane="random" departSpeed="1.00" color="0,1,0">
        <walk from="82694445#1" busStop="82694445#1" speed="1.5" />
        <ride lines="modernjeepney_0" from="82694445#1" to="119883577#4" />
        <walk edges="119883577#4" speed="1.5" />
    </person>
     <person id="person_12" depart="0" departLane="random" departSpeed="1.00" color="0,1,0">
        <walk from="82694445#1" busStop="82694445#1" speed="1.5" />
        <ride lines="modernjeepney_0" from="82694445#1" to="119883577#7" />
        <walk edges="119883577#7" speed="1.5" />
    </person>
     <person id="person_13" depart="0" departLane="random" departSpeed="1.00" color="0,1,0">
        <walk from="82694445#1" busStop="82694445#1" speed="1.5" />
        <ride lines="modernjeepney_0" from="82694445#1" to="16174062#0" />
        <walk edges="16174062#0" speed="1.5" />
    </person>

    
    <person id="person_14" depart="0" departLane="random" departSpeed="1.00" color="0,1,0">
        <walk from="-4588647#5" busStop="-4588647#5" speed="1.5" />
        <ride lines="modernjeepney_0" from="-4588647#5" to="161754854#1" />
        <walk edges="161754854#1" speed="1.5" />
    </person>
    <person id="person_15" depart="0" departLane="random" departSpeed="1.00" color="0,1,0">
        <walk from="-4588647#5" busStop="-4588647#5" speed="1.5" />
        <ride lines="modernjeepney_0" from="-4588647#5" to="704746733#0" />
        <walk edges="704746733#0" speed="1.5" />
    </person>

     
    <person id="person_16" depart="000" departLane="random" departSpeed="1.00" color="0,1,0">
        <walk from="136822582" busStop="136822582" speed="1.5" />
        <ride lines="modernjeepney_0" from="136822582" to="1158575268" />
        <walk edges="1158575268" speed="1.5" />
    </person>
    <person id="person_17" depart="000" departLane="random" departSpeed="1.00" color="0,1,0">
        <walk from="136822582" busStop="136822582" speed="1.5" />
        <ride lines="modernjeepney_0" from="136822582" to="1158575268" />
        <walk edges="1158575268" speed="1.5" />
    </person>
    <person id="person_18" depart="000" departLane="random" departSpeed="1.00" color="0,1,0">
        <walk from="136822582" busStop="136822582" speed="1.5" />
        <ride lines="modernjeepney_0" from="136822582" to="-187486758#0" />
        <walk edges="-187486758#0" speed="1.5" />
    </person>

    
    <person id="person_19" depart="000" departLane="random" departSpeed="1.00" color="0,1,0">
        <walk from="161754854#1" busStop="161754854#1" speed="1.5" />
        <ride lines="modernjeepney_0" from="161754854#1" to="825090426" />
        <walk edges="825090426" speed="1.5" />
    </person>
    <person id="person_20" depart="000" departLane="random" departSpeed="1.00" color="0,1,0">
        <walk from="161754854#1" busStop="161754854#1" speed="1.5" />
        <ride lines="modernjeepney_0" from="161754854#1" to="119883577#8" />
        <walk edges="119883577#8" speed="1.5" />
    </person>

    
    <person id="person_21" depart="050" departLane="random" departSpeed="1.00" color="1,0,1">
        <walk from="161754854#2" busStop="161754854#2" speed="1.5" />
        <stop busStop="161754854#2" duration="7200" />
    </person>

    
    <person id="person_22" depart="050" departLane="random" departSpeed="1.00" color="0,1,0">
        <walk from="136822571#1" busStop="136822571#1" speed="1.5" />
        <ride lines="modernjeepney_0" from="136822571#1" to="16174062#0" />
        <walk edges="16174062#0" speed="1.5" />
    </person>

    
    <person id="person_23" depart="000" departLane="random" departSpeed="1.00" color="0,1,0">
        <walk from="704746733#0" busStop="704746733#0" speed="1.5" />
        <ride lines="modernjeepney_0" from="704746733#0" to="-187486758#0" />
        <walk edges="-187486758#0" speed="1.5" />
    </person>
    <person id="person_24" depart="000" departLane="random" departSpeed="1.00" color="0,1,0">
        <walk from="704746733#0" busStop="704746733#0" speed="1.5" />
        <ride lines="modernjeepney_0" from="704746733#0" to="16174062#0" />
        <walk edges="16174062#0" speed="1.5" />
    </person>
    <person id="person_25" depart="000" departLane="random" departSpeed="1.00" color="0,1,0">
        <walk from="704746733#0" busStop="704746733#0" speed="1.5" />
        <ride lines="modernjeepney_0" from="704746733#0" to="16174062#0" />
        <walk edges="16174062#0" speed="1.5" />
    </person>

</routes>