<?xml version='1.0' encoding='utf-8'?>
<routes>

<person id="person_1" depart="0" departLane="random" departSpeed="1.00" color="0,1,0">
    <walk from="29377703#1" busStop="29377703#1" speed="1.5" />
    <ride lines="jeepney_0 jeepney_1 modernjeepney_0" from="29377703#1" to="29377703#4" />
    <walk edges="29377703#4" speed="1.5" />
</person>

<person id="person_2" depart="0" departLane="random" departSpeed="1.00" color="0,1,0">
    <walk from="29377703#1" busStop="29377703#1" speed="1.5" />
    <ride lines="jeepney_0 jeepney_1 modernjeepney_0" from="29377703#1" to="29377703#4" />
    <walk edges="29377703#4" speed="1.5" />
</person>

<person id="person_3" depart="0" departLane="random" departSpeed="1.00" color="0,1,0">
    <walk from="29377703#1" busStop="29377703#1" speed="1.5" />
    <ride lines="jeepney_0 jeepney_1 modernjeepney_0" from="29377703#1" to="924607337#0" />
    <walk edges="924607337#0" speed="1.5" />
</person>

<person id="person_4" depart="0" departLane="random" departSpeed="1.00" color="0,1,0">
    <walk from="29377703#1" busStop="29377703#1" speed="1.5" />
    <ride lines="jeepney_0 jeepney_1 modernjeepney_0" from="29377703#1" to="924607337#0" />
    <walk edges="924607337#0" speed="1.5" />
</person>

<person id="person_5" depart="0" departLane="random" departSpeed="1.00" color="0,1,0">
    <walk from="29377703#1" busStop="29377703#1" speed="1.5" />
    <ride lines="jeepney_0 jeepney_1 modernjeepney_0" from="29377703#1" to="924607337#0" />
    <walk edges="924607337#0" speed="1.5" />
</person>




<person id="person_6" depart="0" departLane="random" departSpeed="1.00" color="0,1,0">
    <walk from="29377703#2" busStop="29377703#2" speed="1.5" />
    <ride lines="jeepney_0 jeepney_1 modernjeepney_0" from="29377703#2" to="924607337#0" />
    <walk edges="924607337#0" speed="1.5" />
</person>

<person id="person_7" depart="0" departLane="random" departSpeed="1.00" color="1,0,0">
    <walk from="29377703#2" busStop="29377703#2" speed="1.5" />
    <stop busStop="29377703#2" duration="7200" />
</person>





<person id="person_8" depart="0" departLane="random" departSpeed="1.00" color="0,1,0">
    <walk from="29377703#2" busStop="29377703#2" speed="1.5" />
    <ride lines="jeepney_0 jeepney_1 modernjeepney_0" from="29377703#2" to="924607337#4" />
    <walk edges="924607337#4" speed="1.5" />
</person>

<person id="person_9" depart="0" departLane="random" departSpeed="1.00" color="0,1,0">
    <walk from="29377703#2" busStop="29377703#2" speed="1.5" />
    <ride lines="jeepney_0 jeepney_1 modernjeepney_0" from="29377703#2" to="924607337#4" />
    <walk edges="924607337#4" speed="1.5" />
</person>

<person id="person_10" depart="0" departLane="random" departSpeed="1.00" color="0,1,0">
    <walk from="29377703#2" busStop="29377703#2" speed="1.5" />
    <ride lines="jeepney_0 jeepney_1 modernjeepney_0" from="29377703#2" to="924607337#4" />
    <walk edges="924607337#4" speed="1.5" />
</person>

<person id="person_11" depart="0" departLane="random" departSpeed="1.00" color="0,1,0">
    <walk from="29377703#2" busStop="29377703#2" speed="1.5" />
    <ride lines="jeepney_0 jeepney_1 modernjeepney_0" from="29377703#2" to="924607337#4" />
    <walk edges="924607337#4" speed="1.5" />
</person>

<person id="person_12" depart="0" departLane="random" departSpeed="1.00" color="0,1,0">
    <walk from="29377703#2" busStop="29377703#2" speed="1.5" />
    <ride lines="jeepney_0 jeepney_1 modernjeepney_0" from="29377703#2" to="924607337#4" />
    <walk edges="924607337#4" speed="1.5" />
</person>




<person id="person_13" depart="0" departLane="random" departSpeed="1.00" color="0,1,0">
    <walk from="303412427#1" busStop="303412427#1" speed="1.5" />
    <ride lines="jeepney_0 jeepney_1 modernjeepney_0" from="303412427#1" to="923261416" />
    <walk edges="923261416" speed="1.5" />
</person>

<person id="person_14" depart="0" departLane="random" departSpeed="1.00" color="0,1,0">
    <walk from="303412427#1" busStop="303412427#1" speed="1.5" />
    <ride lines="jeepney_0 jeepney_1 modernjeepney_0" from="303412427#1" to="1176045777" />
    <walk edges="1176045777" speed="1.5" />
</person>

<person id="person_15" depart="0" departLane="random" departSpeed="1.00" color="0,1,0">
    <walk from="303412427#1" busStop="303412427#1" speed="1.5" />
    <ride lines="jeepney_0 jeepney_1 modernjeepney_0" from="303412427#1" to="1176045777" />
    <walk edges="1176045777" speed="1.5" />
</person>

<person id="person_16" depart="0" departLane="random" departSpeed="1.00" color="0,1,0">
    <walk from="303412427#1" busStop="303412427#1" speed="1.5" />
    <ride lines="jeepney_0 jeepney_1 modernjeepney_0" from="303412427#1" to="82694458#0" />
    <walk edges="82694458#0" speed="1.5" />
</person>

<person id="person_17" depart="0" departLane="random" departSpeed="1.00" color="0,1,0">
    <walk from="303412427#1" busStop="303412427#1" speed="1.5" />
    <ride lines="jeepney_0 jeepney_1 modernjeepney_0" from="303412427#1" to="-575729108#2" />
    <walk edges="-575729108#2" speed="1.5" />
</person>




<person id="person_18" depart="0" departLane="random" departSpeed="1.00" color="0,1,0">
    <walk from="303412427#3" busStop="303412427#3" speed="1.5" />
    <ride lines="jeepney_0 jeepney_1 modernjeepney_0" from="303412427#3" to="-4588647#3" />
    <walk edges="-4588647#3" speed="1.5" />
</person>

<person id="person_19" depart="0" departLane="random" departSpeed="1.00" color="0,1,0">
    <walk from="303412427#3" busStop="303412427#3" speed="1.5" />
    <ride lines="jeepney_0 jeepney_1 modernjeepney_0" from="303412427#3" to="-4588647#3" />
    <walk edges="-4588647#3" speed="1.5" />
</person>




<person id="person_20" depart="0" departLane="random" departSpeed="1.00" color="0,1,0">
    <walk from="303412427#3" busStop="303412427#3" speed="1.5" />
    <ride lines="jeepney_0 jeepney_1 modernjeepney_0" from="303412427#3" to="-4588647#3" />
    <walk edges="-4588647#3" speed="1.5" />
</person>

<person id="person_21" depart="0" departLane="random" departSpeed="1.00" color="1,0,0">
    <walk from="303412427#2" busStop="303412427#3" speed="1.5" />
    <stop busStop="303412427#3" duration="7200" />
</person>

<person id="person_22" depart="0" departLane="random" departSpeed="1.00" color="1,0,0">
    <walk from="303412427#2" busStop="303412427#3" speed="1.5" />
    <stop busStop="303412427#3" duration="7200" />
</person>




<person id="person_23" depart="0" departLane="random" departSpeed="1.00" color="0,1,0">
    <walk from="303412427#14" busStop="303412427#14" speed="1.5" />
    <ride lines="jeepney_0 jeepney_1 modernjeepney_0" from="303412427#14" to="161754854#0" />
    <walk edges="161754854#0" speed="1.5" />
</person>




<person id="person_24" depart="0" departLane="random" departSpeed="1.00" color="0,1,0">
    <walk from="615456195" busStop="615456195" speed="1.5" />
    <ride lines="jeepney_0 jeepney_1 modernjeepney_0" from="615456195" to="369686026" />
    <walk edges="369686026" speed="1.5" />
</person>




<person id="person_25" depart="0" departLane="random" departSpeed="1.00" color="0,1,0">
    <walk from="368461882#0" busStop="368461882#0" speed="1.5" />
    <ride lines="jeepney_0 jeepney_1 modernjeepney_0" from="368461882#0" to="369686026" />
    <walk edges="369686026" speed="1.5" />
</person>

<person id="person_26" depart="0" departLane="random" departSpeed="1.00" color="0,1,0">
    <walk from="368461882#0" busStop="368461882#0" speed="1.5" />
    <ride lines="jeepney_0 jeepney_1 modernjeepney_0" from="368461882#0" to="-187486758#5" />
    <walk edges="-187486758#5" speed="1.5" />
</person>

<person id="person_27" depart="0" departLane="random" departSpeed="1.00" color="0,1,0">
    <walk from="368461882#0" busStop="368461882#0" speed="1.5" />
    <ride lines="jeepney_0 jeepney_1 modernjeepney_0" from="368461882#0" to="-187486758#5" />
    <walk edges="-187486758#5" speed="1.5" />
</person>

<person id="person_28" depart="0" departLane="random" departSpeed="1.00" color="0,1,0">
    <walk from="368461882#0" busStop="368461882#0" speed="1.5" />
    <ride lines="jeepney_0 jeepney_1 modernjeepney_0" from="368461882#0" to="16174062#1" />
    <walk edges="16174062#1" speed="1.5" />
</person>

<person id="person_29" depart="0" departLane="random" departSpeed="1.00" color="0,1,0">
    <walk from="368461882#0" busStop="368461882#0" speed="1.5" />
    <ride lines="jeepney_0 jeepney_1 modernjeepney_0" from="368461882#0" to="16174062#4" />
    <walk edges="16174062#4" speed="1.5" />
</person>

<person id="person_30" depart="0" departLane="random" departSpeed="1.00" color="1,0,0">
    <walk from="368461882#0" busStop="368461882#0" speed="1.5" />
    <stop busStop="368461882#0" duration="7200" />
</person>




<person id="person_31" depart="0" departLane="random" departSpeed="1.00" color="0,1,0">
    <walk from="694268909#1" busStop="694268909#1" speed="1.5" />
    <ride lines="jeepney_0 jeepney_1 modernjeepney_0" from="694268909#1" to="16174062#4" />
    <walk edges="16174062#4" speed="1.5" />
</person>

<person id="person_32" depart="0" departLane="random" departSpeed="1.00" color="0,1,0">
    <walk from="694268909#1" busStop="694268909#1" speed="1.5" />
    <ride lines="jeepney_0 jeepney_1 modernjeepney_0" from="694268909#1" to="16174062#4" />
    <walk edges="16174062#4" speed="1.5" />
</person>

<person id="person_33" depart="0" departLane="random" departSpeed="1.00" color="0,1,0">
    <walk from="694268909#1" busStop="694268909#1" speed="1.5" />
    <ride lines="jeepney_0 jeepney_1 modernjeepney_0" from="694268909#1" to="16174062#4" />
    <walk edges="16174062#4" speed="1.5" />
</person>




<person id="person_34" depart="0" departLane="random" departSpeed="1.00" color="0,1,0">
    <walk from="82694445#1" busStop="82694445#1" speed="1.5" />
    <ride lines="jeepney_0 jeepney_1 modernjeepney_0" from="82694445#1" to="16174062#4" />
    <walk edges="16174062#4" speed="1.5" />
</person>

<person id="person_35" depart="0" departLane="random" departSpeed="1.00" color="0,1,0">
    <walk from="82694445#1" busStop="82694445#1" speed="1.5" />
    <ride lines="jeepney_0 jeepney_1 modernjeepney_0" from="82694445#1" to="16174062#4" />
    <walk edges="16174062#4" speed="1.5" />
</person>

<person id="person_36" depart="0" departLane="random" departSpeed="1.00" color="1,0,0">
    <walk from="82694445#0" busStop="82694445#1" speed="1.5" />
    <stop busStop="82694445#1" duration="7200" />
</person>

<person id="person_37" depart="0" departLane="random" departSpeed="1.00" color="1,0,0">
    <walk from="82694445#0" busStop="82694445#1" speed="1.5" />
    <stop busStop="82694445#1" duration="7200" />
</person>

<person id="person_38" depart="0" departLane="random" departSpeed="1.00" color="1,0,0">
    <walk from="82694445#0" busStop="82694445#1" speed="1.5" />
    <stop busStop="82694445#1" duration="7200" />
</person>

<person id="person_39" depart="0" departLane="random" departSpeed="1.00" color="1,0,0">
    <walk from="82694445#0" busStop="82694445#1" speed="1.5" />
    <stop busStop="82694445#1" duration="7200" />
</person>

<person id="person_40" depart="0" departLane="random" departSpeed="1.00" color="1,0,0">
    <walk from="82694445#0" busStop="82694445#1" speed="1.5" />
    <stop busStop="82694445#1" duration="7200" />
</person>

<person id="person_41" depart="0" departLane="random" departSpeed="1.00" color="1,0,0">
    <walk from="82694445#0" busStop="82694445#1" speed="1.5" />
    <stop busStop="82694445#1" duration="7200" />
</person>

<person id="person_42" depart="0" departLane="random" departSpeed="1.00" color="1,0,0">
    <walk from="82694445#0" busStop="82694445#1" speed="1.5" />
    <stop busStop="82694445#1" duration="7200" />
</person>

<person id="person_43" depart="0" departLane="random" departSpeed="1.00" color="1,0,0">
    <walk from="82694445#0" busStop="82694445#1" speed="1.5" />
    <stop busStop="82694445#1" duration="7200" />
</person>




<person id="person_44" depart="0" departLane="random" departSpeed="1.00" color="0,1,0">
    <walk from="82694458#0" busStop="82694458#0" speed="1.5" />
    <ride lines="jeepney_0 jeepney_1 modernjeepney_0" from="82694458#0" to="16174062#4" />
    <walk edges="16174062#4" speed="1.5" />
</person>




<person id="person_45" depart="0" departLane="random" departSpeed="1.00" color="0,1,0">
    <walk from="4086429" busStop="4086429" speed="1.5" />
    <ride lines="jeepney_0 jeepney_1 modernjeepney_0" from="4086429" to="16174062#4" />
    <walk edges="16174062#4" speed="1.5" />
</person>

<person id="person_46" depart="0" departLane="random" departSpeed="1.00" color="0,1,0">
    <walk from="4086429" busStop="4086429" speed="1.5" />
    <ride lines="jeepney_0 jeepney_1 modernjeepney_0" from="4086429" to="16174062#4" />
    <walk edges="16174062#4" speed="1.5" />
</person>

<person id="person_47" depart="0" departLane="random" departSpeed="1.00" color="0,1,0">
    <walk from="4086429" busStop="4086429" speed="1.5" />
    <ride lines="jeepney_0 jeepney_1 modernjeepney_0" from="4086429" to="16174062#4" />
    <walk edges="16174062#4" speed="1.5" />
</person>

<person id="person_48" depart="0" departLane="random" departSpeed="1.00" color="0,1,0">
    <walk from="4086429" busStop="4086429" speed="1.5" />
    <ride lines="jeepney_0 jeepney_1 modernjeepney_0" from="4086429" to="16174062#4" />
    <walk edges="16174062#4" speed="1.5" />
</person>

<person id="person_49" depart="0" departLane="random" departSpeed="1.00" color="1,0,0">
    <walk from="575729552#0" busStop="4086429" speed="1.5" />
    <stop busStop="4086429" duration="7200" />
</person>

<person id="person_50" depart="0" departLane="random" departSpeed="1.00" color="1,0,0">
    <walk from="575729552#0" busStop="4086429" speed="1.5" />
    <stop busStop="4086429" duration="7200" />
</person>

<person id="person_51" depart="0" departLane="random" departSpeed="1.00" color="1,0,0">
    <walk from="575729552#0" busStop="4086429" speed="1.5" />
    <stop busStop="4086429" duration="7200" />
</person>

<person id="person_52" depart="0" departLane="random" departSpeed="1.00" color="1,0,0">
    <walk from="575729552#0" busStop="4086429" speed="1.5" />
    <stop busStop="4086429" duration="7200" />
</person>

<person id="person_53" depart="0" departLane="random" departSpeed="1.00" color="1,0,0">
    <walk from="575729552#0" busStop="4086429" speed="1.5" />
    <stop busStop="4086429" duration="7200" />
</person>

<person id="person_54" depart="0" departLane="random" departSpeed="1.00" color="1,0,0">
    <walk from="575729552#0" busStop="4086429" speed="1.5" />
    <stop busStop="4086429" duration="7200" />
</person>

<person id="person_55" depart="0" departLane="random" departSpeed="1.00" color="1,0,0">
    <walk from="575729552#0" busStop="4086429" speed="1.5" />
    <stop busStop="4086429" duration="7200" />
</person>




<person id="person_56" depart="0" departLane="random" departSpeed="1.00" color="0,1,0">
    <walk from="-4332734#6" busStop="-4332734#6" speed="1.5" />
    <ride lines="jeepney_0 jeepney_1 modernjeepney_0" from="-4332734#6" to="16174062#4" />
    <walk edges="16174062#4" speed="1.5" />
</person>




<person id="person_57" depart="0" departLane="random" departSpeed="1.00" color="0,1,0">
    <walk from="-4332734#4" busStop="-4332734#4" speed="1.5" />
    <ride lines="jeepney_0 jeepney_1 modernjeepney_0" from="-4332734#4" to="16174062#4" />
    <walk edges="16174062#4" speed="1.5" />
</person>

<person id="person_58" depart="0" departLane="random" departSpeed="1.00" color="0,1,0">
    <walk from="-4332734#4" busStop="-4332734#4" speed="1.5" />
    <ride lines="jeepney_0 jeepney_1 modernjeepney_0" from="-4332734#4" to="16174062#4" />
    <walk edges="16174062#4" speed="1.5" />
</person>




<person id="person_59" depart="0" departLane="random" departSpeed="1.00" color="0,1,0">
    <walk from="-4588647#4" busStop="-4588647#4" speed="1.5" />
    <ride lines="jeepney_0 jeepney_1 modernjeepney_0" from="-4588647#4" to="16174062#4" />
    <walk edges="16174062#4" speed="1.5" />
</person>

<person id="person_60" depart="0" departLane="random" departSpeed="1.00" color="1,0,0">
    <walk from="-4588647#3" busStop="-4588647#4" speed="1.5" />
    <stop busStop="-4588647#4" duration="7200" />
</person>

<person id="person_61" depart="0" departLane="random" departSpeed="1.00" color="1,0,0">
    <walk from="-4588647#3" busStop="-4588647#4" speed="1.5" />
    <stop busStop="-4588647#4" duration="7200" />
</person>




<person id="person_62" depart="0" departLane="random" departSpeed="1.00" color="0,1,0">
    <walk from="119883577#1" busStop="119883577#1" speed="1.5" />
    <ride lines="jeepney_0 jeepney_1 modernjeepney_0" from="119883577#1" to="16174062#4" />
    <walk edges="16174062#4" speed="1.5" />
</person>

<person id="person_63" depart="0" departLane="random" departSpeed="1.00" color="0,1,0">
    <walk from="119883577#1" busStop="119883577#1" speed="1.5" />
    <ride lines="jeepney_0 jeepney_1 modernjeepney_0" from="119883577#1" to="16174062#4" />
    <walk edges="16174062#4" speed="1.5" />
</person>




<person id="person_64" depart="0" departLane="random" departSpeed="1.00" color="0,1,0">
    <walk from="119883577#4" busStop="119883577#4" speed="1.5" />
    <ride lines="jeepney_0 jeepney_1 modernjeepney_0" from="119883577#4" to="16174062#4" />
    <walk edges="16174062#4" speed="1.5" />
</person>

<person id="person_65" depart="0" departLane="random" departSpeed="1.00" color="0,1,0">
    <walk from="119883577#4" busStop="119883577#4" speed="1.5" />
    <ride lines="jeepney_0 jeepney_1 modernjeepney_0" from="119883577#4" to="16174062#4" />
    <walk edges="16174062#4" speed="1.5" />
</person>

<person id="person_66" depart="0" departLane="random" departSpeed="1.00" color="0,1,0">
    <walk from="119883577#4" busStop="119883577#4" speed="1.5" />
    <ride lines="jeepney_0 jeepney_1 modernjeepney_0" from="119883577#4" to="16174062#4" />
    <walk edges="16174062#4" speed="1.5" />
</person>

</routes>