<?xml version="1.0" ?>
<!-- 
    RIDER
    <person id="person_898" depart="1" departLane="random" departSpeed="1.00" color="0,1,0">
        <walk from="119883577#8" busStop="119883577#8" speed="1.5"/>
        <ride line="jeepney_0" busStop="119883577#8" to="-187486758#1"/>
        <walk edges="-187486758#1" speed="1.5"/>
    </person>

     WALKER
    <person id="person_473" depart="2" departLane="random" departSpeed="1.00" color="1,0,0">
        <walk from="31"327474#1" busStop="31"327474#1" speed="1.5"/>
        <stop busStop="31"327474#1" duration="3000"/>
        <walk from="31"327474#1" to="729164042#1" speed="1.5"/>
    </person>

    STANDER
    <person id="person_610" depart="2" departLane="random" departSpeed="1.00" color="1,0,1">
        <walk from="82694445#1" busStop="82694445#1" speed="1.5"/>
        <stop busStop="82694445#1" duration="1000"/>
    </person> -->
<routes>

<!-- Legend of variables
    depart              Add 10 secs (Spawn time)
    departLane          random
    departSpeed         1.00
    color               0,1,0
    walk from           EDGE Where person is waiting
    speed               1.5
    stop busStop        EDGE Where person will unload
    duration            Duration of spawn == 3000 seconds

    walk from + busStop = SAME
    to + Walk edges     = Where to Stop
 -->

    <!-- 1 -->
    <person id="person_1" depart="25" departLane="random" departSpeed="1.00" color="1,0,0">
        <walk from="303412427#4" busStop="303412427#4" speed="1.5"/>
        <stop busStop="303412427#7" duration="3000"/>
        <walk from="3303412427#4" to="303412427#7" speed="1.5"/>
    </person>
    <person id="person_2" depart="25" departLane="random" departSpeed="1.00" color="1,0,0">
        <walk from="303412427#4" busStop="303412427#4" speed="1.5"/>
        <stop busStop="-15785456#2" duration="3000"/>
        <walk from="3303412427#4" to="-15785456#2" speed="1.5"/>
    </person>
    <person id="person_3" depart="25" departLane="random" departSpeed="1.00" color="1,0,0">
        <walk from="303412427#4" busStop="303412427#4" speed="1.5"/>
        <stop busStop="-15785456#2" duration="3000"/>
        <walk from="3303412427#4" to="-15785456#2" speed="1.5"/>
    </person>
    <person id="person_4" depart="25" departLane="random" departSpeed="1.00" color="1,0,0">
        <walk from="303412427#4" busStop="303412427#4" speed="1.5"/>
        <stop busStop="-15785456#2" duration="3000"/>
        <walk from="3303412427#4" to="-15785456#2" speed="1.5"/>
    </person>
    <person id="person_5" depart="25" departLane="random" departSpeed="1.00" color="1,0,0">
        <walk from="303412427#5" busStop="303412427#5" speed="1.5"/>
        <stop busStop="-15785456#2" duration="3000"/>
        <walk from="303412427#5" to="-15785456#2" speed="1.5"/>
    </person>
    <person id="person_6" depart="25" departLane="random" departSpeed="1.00" color="1,0,0">
        <walk from="303412427#4" busStop="303412427#4" speed="1.5"/>
        <stop busStop="-15785456#2" duration="3000"/>
        <walk from="303412427#5" to="-15785456#2" speed="1.5"/>
    </person>
    <person id="person_7" depart="25" departLane="random" departSpeed="1.00" color="1,0,0">
        <walk from="303412427#4" busStop="303412427#4" speed="1.5"/>
        <stop busStop="-15785456#2" duration="3000"/>
        <walk from="303412427#5" to="-15785456#2" speed="1.5"/>
    </person>
    <person id="person_8" depart="25" departLane="random" departSpeed="1.00" color="1,0,0">
        <walk from="303412427#7" busStop="303412427#7" speed="1.5"/>
        <stop busStop="15785462#2" duration="3000"/>
        <walk from="303412427#7" to="15785462#2" speed="1.5"/>
    </person>
    <person id="person_9" depart="25" departLane="random" departSpeed="1.00" color="1,0,1">
        <walk from="303412427#7" busStop="303412427#7" speed="1.5"/>
        <stop busStop="303412427#7" duration="3000"/>
    </person> 
    <person id="person_10" depart="25" departLane="random" departSpeed="1.00" color="1,0,1">
        <walk from="303412427#7" busStop="303412427#7" speed="1.5"/>
        <stop busStop="303412427#7" duration="3000"/>
    </person> 
    <person id="person_11" depart="25" departLane="random" departSpeed="1.00" color="1,0,1">
        <walk from="303412427#7" busStop="303412427#7" speed="1.5"/>
        <stop busStop="303412427#7" duration="3000"/>
    </person> 
    <person id="person_12" depart="25" departLane="random" departSpeed="1.00" color="1,0,1">
        <walk from="303412427#7" busStop="303412427#7" speed="1.5"/>
        <stop busStop="303412427#7" duration="3000"/>
    </person> 
    <person id="person_13" depart="25" departLane="random" departSpeed="1.00" color="1,0,0">
        <walk from="303412427#7" busStop="303412427#7" speed="1.5"/>
        <stop busStop="303412427#7" duration="3000"/>
        <walk from="303412427#7" to="303412427#11" speed="1.5"/>
    </person>

    <!-- 2 -->
    <person id="person_14" depart="110" departLane="random" departSpeed="1.00" color="0,1,0">
        <walk from="303412427#9" busStop="303412427#9" speed="1.5"/>
        <ride line="jeepney_0" busStop="303412427#9" to="924607337#4"/>
        <walk edges="924607337#4" speed="1.5"/>
     </person>
    <person id="person_15" depart="110" departLane="random" departSpeed="1.00" color="1,0,0">
        <walk from="303412427#9" busStop="303412427#9" speed="1.5"/>
        <stop busStop="303412427#9" duration="3000"/>
        <walk from="303412427#9" to="-303412427#10" speed="1.5"/>
    </person>
     <person id="person_16" depart="110" departLane="random" departSpeed="1.00" color="0,1,0">
        <walk from="303412427#11" busStop="303412427#11" speed="1.5"/>
        <ride line="jeepney_0" busStop="303412427#11" to="615456195"/>
        <walk edges="615456195" speed="1.5"/>
     </person>
     <person id="person_17" depart="110" departLane="random" departSpeed="1.00" color="0,1,0">
        <walk from="303412427#11" busStop="303412427#11" speed="1.5"/>
        <ride line="jeepney_0" busStop="303412427#11" to="615456195"/>
        <walk edges="615456195" speed="1.5"/>
     </person>
     <person id="person_18" depart="110" departLane="random" departSpeed="1.00" color="0,1,0">
        <walk from="303412427#11" busStop="303412427#11" speed="1.5"/>
        <ride line="jeepney_0" busStop="303412427#11" to="615456195"/>
        <walk edges="615456195" speed="1.5"/>
     </person>
     <person id="person_19" depart="110" departLane="random" departSpeed="1.00" color="0,1,0">
        <walk from="303412427#11" busStop="303412427#11" speed="1.5"/>
        <ride line="jeepney_0" busStop="303412427#11" to="615456195"/>
        <walk edges="615456195" speed="1.5"/>
     </person>
     <person id="person_20" depart="110" departLane="random" departSpeed="1.00" color="0,1,0">
        <walk from="303412427#11" busStop="303412427#11" speed="1.5"/>
        <ride line="jeepney_0" busStop="303412427#11" to="615456195"/>
        <walk edges="615456195" speed="1.5"/>
     </person>
     <person id="person_21" depart="110" departLane="random" departSpeed="1.00" color="0,1,0">
        <walk from="303412427#11" busStop="303412427#11" speed="1.5"/>
        <ride line="jeepney_0" busStop="303412427#11" to="615456195"/>
        <walk edges="615456195" speed="1.5"/>
     </person>

     <!-- 3 -->
     <person id="person_22" depart="250" departLane="random" departSpeed="1.00" color="1,0,0">
        <walk from="303412427#17" busStop="303412427#17" speed="1.5"/>
        <stop busStop="303412427#17" duration="3000"/>
        <walk from="303412427#17" to="303412427#14" speed="1.5"/>
    </person>
    <person id="person_23" depart="250" departLane="random" departSpeed="1.00" color="1,0,0">
        <walk from="303412427#17" busStop="303412427#17" speed="1.5"/>
        <stop busStop="303412427#17" duration="3000"/>
        <walk from="303412427#17" to="303412427#14" speed="1.5"/>
    </person>
    <person id="person_24" depart="250" departLane="random" departSpeed="1.00" color="1,0,0">
        <walk from="303412427#17" busStop="303412427#17" speed="1.5"/>
        <stop busStop="303412427#17" duration="3000"/>
        <walk from="303412427#17" to="303412427#14" speed="1.5"/>
    </person>
    <person id="person_25" depart="250" departLane="random" departSpeed="1.00" color="1,0,0">
        <walk from="303412427#17" busStop="303412427#17" speed="1.5"/>
        <stop busStop="303412427#17" duration="3000"/>
        <walk from="303412427#17" to="303412427#14" speed="1.5"/>
    </person>
    <person id="person_26" depart="250" departLane="random" departSpeed="1.00" color="1,0,0">
        <walk from="303412427#17" busStop="303412427#17" speed="1.5"/>
        <stop busStop="303412427#17" duration="3000"/>
        <walk from="303412427#17" to="303412427#14" speed="1.5"/>
    </person>
    
    <!-- 4 -->
    <person id="person_27" depart="290" departLane="random" departSpeed="1.00" color="1,0,1">
        <walk from="303412427#17" busStop="303412427#17" speed="1.5"/>
        <stop busStop="303412427#17" duration="3000"/>
    </person> 
    <person id="person_28" depart="290" departLane="random" departSpeed="1.00" color="1,0,1">
        <walk from="303412427#17" busStop="303412427#17" speed="1.5"/>
        <stop busStop="303412427#17" duration="3000"/>
    </person> 
    <person id="person_29" depart="290" departLane="random" departSpeed="1.00" color="1,0,1">
        <walk from="303412427#17" busStop="303412427#17" speed="1.5"/>
        <stop busStop="303412427#17" duration="3000"/>
    </person> 
    <person id="person_30" depart="290" departLane="random" departSpeed="1.00" color="1,0,1">
        <walk from="303412427#17" busStop="303412427#17" speed="1.5"/>
        <stop busStop="303412427#17" duration="3000"/>
    </person> 
    <person id="person_31" depart="290" departLane="random" departSpeed="1.00" color="1,0,1">
        <walk from="303412427#17" busStop="303412427#17" speed="1.5"/>
        <stop busStop="303412427#17" duration="3000"/>
    </person> 
    <person id="person_32" depart="290" departLane="random" departSpeed="1.00" color="1,0,1">
        <walk from="303412427#17" busStop="303412427#17" speed="1.5"/>
        <stop busStop="303412427#17" duration="3000"/>
    </person> 
    <person id="person_33" depart="290" departLane="random" departSpeed="1.00" color="1,0,1">
        <walk from="303412427#17" busStop="303412427#17" speed="1.5"/>
        <stop busStop="303412427#17" duration="3000"/>
    </person> 
    <person id="person_34" depart="290" departLane="random" departSpeed="1.00" color="1,0,1">
        <walk from="303412427#17" busStop="303412427#17" speed="1.5"/>
        <stop busStop="303412427#17" duration="3000"/>
    </person> 
    <person id="person_35" depart="290" departLane="random" departSpeed="1.00" color="1,0,1">
        <walk from="303412427#17" busStop="303412427#17" speed="1.5"/>
        <stop busStop="303412427#17" duration="3000"/>
    </person> 

    <!-- 7 -->
    <person id="person_36" depart="400" departLane="random" departSpeed="1.00" color="1,0,1">
        <walk from="615456195" busStop="615456195" speed="1.5"/>
        <stop busStop="615456195" duration="3000"/>
    </person> 
    <person id="person_37" depart="400" departLane="random" departSpeed="1.00" color="1,0,1">
        <walk from="615456195" busStop="615456195" speed="1.5"/>
        <stop busStop="615456195" duration="3000"/>
    </person> 
    <person id="person_38" depart="400" departLane="random" departSpeed="1.00" color="1,0,1">
        <walk from="615456195" busStop="615456195" speed="1.5"/>
        <stop busStop="615456195" duration="3000"/>
    </person> 
    <person id="person_39" depart="400" departLane="random" departSpeed="1.00" color="1,0,1">
        <walk from="615456195" busStop="615456195" speed="1.5"/>
        <stop busStop="615456195" duration="3000"/>
    </person> 
    <person id="person_40" depart="400" departLane="random" departSpeed="1.00" color="1,0,1">
        <walk from="615456195" busStop="615456195" speed="1.5"/>
        <stop busStop="615456195" duration="3000"/>
    </person> 
    <person id="person_41" depart="400" departLane="random" departSpeed="1.00" color="1,0,1">
        <walk from="615456195" busStop="615456195" speed="1.5"/>
        <stop busStop="615456195" duration="3000"/>
    </person> 
    <person id="person_42" depart="400" departLane="random" departSpeed="1.00" color="1,0,1">
        <walk from="615456195" busStop="615456195" speed="1.5"/>
        <stop busStop="615456195" duration="3000"/>
    </person> 
    <person id="person_43" depart="400" departLane="random" departSpeed="1.00" color="1,0,1">
        <walk from="615456195" busStop="615456195" speed="1.5"/>
        <stop busStop="615456195" duration="3000"/>
    </person> 
    <person id="person_44" depart="400" departLane="random" departSpeed="1.00" color="1,0,1">
        <walk from="615456195" busStop="615456195" speed="1.5"/>
        <stop busStop="615456195" duration="3000"/>
    </person> 
    <person id="person_45" depart="400" departLane="random" departSpeed="1.00" color="1,0,1">
        <walk from="615456195" busStop="615456195" speed="1.5"/>
        <stop busStop="615456195" duration="3000"/>
    </person> 
    <person id="person_46" depart="400" departLane="random" departSpeed="1.00" color="0,1,0">
        <walk from="615456195" busStop="615456195" speed="1.5"/>
        <ride line="jeepney_0" busStop="615456195" to="923261416"/>
        <walk edges="923261416" speed="1.5"/>
     </person>
     <person id="person_47" depart="400" departLane="random" departSpeed="1.00" color="0,1,0">
        <walk from="615456195" busStop="615456195" speed="1.5"/>
        <ride line="jeepney_0" busStop="615456195" to="923261416"/>
        <walk edges="923261416" speed="1.5"/>
     </person>
     <person id="person_48" depart="400" departLane="random" departSpeed="1.00" color="0,1,0">
        <walk from="615456195" busStop="615456195" speed="1.5"/>
        <ride line="jeepney_0" busStop="615456195" to="923261416"/>
        <walk edges="923261416" speed="1.5"/>
     </person>
     <person id="person_49" depart="400" departLane="random" departSpeed="1.00" color="0,1,0">
        <walk from="615456195" busStop="615456195" speed="1.5"/>
        <ride line="jeepney_0" busStop="615456195" to="923261416"/>
        <walk edges="923261416" speed="1.5"/>
     </person>
     <person id="person_50" depart="400" departLane="random" departSpeed="1.00" color="0,1,0">
        <walk from="615456195" busStop="615456195" speed="1.5"/>
        <ride line="jeepney_0" busStop="615456195" to="923261416"/>
        <walk edges="923261416" speed="1.5"/>
     </person>

    <!-- 8 -->
    <person id="person_51" depart="500" departLane="random" departSpeed="1.00" color="1,0,1">
        <walk from="615456195" busStop="615456195" speed="1.5"/>
        <stop busStop="615456195" duration="3000"/>
    </person> 
    <person id="person_52" depart="500" departLane="random" departSpeed="1.00" color="1,0,1">
        <walk from="615456195" busStop="615456195" speed="1.5"/>
        <stop busStop="615456195" duration="3000"/>
    </person> 
    <person id="person_53" depart="500" departLane="random" departSpeed="1.00" color="1,0,1">
        <walk from="615456195" busStop="615456195" speed="1.5"/>
        <stop busStop="615456195" duration="3000"/>
    </person> 
    <person id="person_54" depart="500" departLane="random" departSpeed="1.00" color="1,0,1">
        <walk from="615456195" busStop="615456195" speed="1.5"/>
        <stop busStop="615456195" duration="3000"/>
    </person> 
    <person id="person_55" depart="500" departLane="random" departSpeed="1.00" color="1,0,1">
        <walk from="615456195" busStop="615456195" speed="1.5"/>
        <stop busStop="615456195" duration="3000"/>
    </person> 
    <person id="person_56" depart="500" departLane="random" departSpeed="1.00" color="1,0,1">
        <walk from="615456195" busStop="615456195" speed="1.5"/>
        <stop busStop="615456195" duration="3000"/>
    </person> 
    <person id="person_57" depart="500" departLane="random" departSpeed="1.00" color="1,0,1">
        <walk from="615456195" busStop="615456195" speed="1.5"/>
        <stop busStop="615456195" duration="3000"/>
    </person> 
    <person id="person_58" depart="500" departLane="random" departSpeed="1.00" color="1,0,1">
        <walk from="615456195" busStop="615456195" speed="1.5"/>
        <stop busStop="615456195" duration="3000"/>
    </person> 
    <person id="person_59" depart="500" departLane="random" departSpeed="1.00" color="1,0,1">
        <walk from="615456195" busStop="615456195" speed="1.5"/>
        <stop busStop="615456195" duration="3000"/>
    </person> 
    <person id="person_60" depart="500" departLane="random" departSpeed="1.00" color="1,0,1">
        <walk from="615456195" busStop="615456195" speed="1.5"/>
        <stop busStop="615456195" duration="3000"/>
    </person> 
    <person id="person_61" depart="500" departLane="random" departSpeed="1.00" color="1,0,0">
        <walk from="615456195" busStop="615456195" speed="1.5"/>
        <stop busStop="615456195" duration="3000"/>
        <walk from="615456195" to="615456194" speed="1.5"/>
    </person>
    <person id="person_62" depart="500" departLane="random" departSpeed="1.00" color="1,0,0">
        <walk from="615456195" busStop="615456195" speed="1.5"/>
        <stop busStop="615456195" duration="3000"/>
        <walk from="615456195" to="615456194" speed="1.5"/>
    </person>
    <person id="person_63" depart="500" departLane="random" departSpeed="1.00" color="1,0,0">
        <walk from="615456195" busStop="615456195" speed="1.5"/>
        <stop busStop="615456195" duration="3000"/>
        <walk from="615456195" to="615456194" speed="1.5"/>
    </person>
    <person id="person_64" depart="500" departLane="random" departSpeed="1.00" color="1,0,0">
        <walk from="615456195" busStop="615456195" speed="1.5"/>
        <stop busStop="615456195" duration="3000"/>
        <walk from="615456195" to="615456194" speed="1.5"/>
    </person>
    <person id="person_65" depart="500" departLane="random" departSpeed="1.00" color="1,0,0">
        <walk from="615456195" busStop="615456195" speed="1.5"/>
        <stop busStop="615456195" duration="3000"/>
        <walk from="615456195" to="615456194" speed="1.5"/>
    </person>

    <!-- 10 --> 
    <person id="person_66" depart="620" departLane="random" departSpeed="1.00" color="1,0,0">
        <walk from="615456193#0" busStop="615456193#0" speed="1.5"/>
        <stop busStop="615456193#0" duration="3000"/>
        <walk from="615456193#0" to="154644806#1" speed="1.5"/>
    </person>
    <person id="person_67" depart="620" departLane="random" departSpeed="1.00" color="1,0,0">
        <walk from="615456193#0" busStop="615456193#0" speed="1.5"/>
        <stop busStop="615456193#0" duration="3000"/>
        <walk from="615456193#0" to="154644806#1" speed="1.5"/>
    </person>
    <person id="person_68" depart="620" departLane="random" departSpeed="1.00" color="1,0,0">
        <walk from="615456193#0" busStop="615456193#0" speed="1.5"/>
        <stop busStop="615456193#0" duration="3000"/>
        <walk from="615456193#0" to="154644806#1" speed="1.5"/>
    </person>

    <!-- 11 -->
    <person id="person_69" depart="740" departLane="random" departSpeed="1.00" color="1,0,1">
        <walk from="615456193#2" busStop="615456193#2" speed="1.5"/>
        <stop busStop="615456193#2" duration="3000"/>
    </person>
    <person id="person_70" depart="740" departLane="random" departSpeed="1.00" color="1,0,1">
        <walk from="615456193#2" busStop="615456193#2" speed="1.5"/>
        <stop busStop="615456193#2" duration="3000"/>
    </person>
    
    <!-- 12 -->
    <person id="person_71" depart="800" departLane="random" departSpeed="1.00" color="1,0,1">
        <walk from="615478344" busStop="615478344" speed="1.5"/>
        <stop busStop="615478344" duration="3000"/>
    </person>
    <person id="person_72" depart="800" departLane="random" departSpeed="1.00" color="1,0,1">
        <walk from="615478344" busStop="615478344" speed="1.5"/>
        <stop busStop="615478344" duration="3000"/>
    </person>

    <!-- 14 -->
    <person id="person_73" depart="880" departLane="random" departSpeed="1.00" color="1,0,1">
        <walk from="923261416" busStop="923261416" speed="1.5"/>
        <stop busStop="923261416" duration="3000"/>
    </person>
    <person id="person_74" depart="880" departLane="random" departSpeed="1.00" color="1,0,1">
        <walk from="923261416" busStop="923261416" speed="1.5"/>
        <stop busStop="923261416" duration="3000"/>
    </person>
    <person id="person_75" depart="880" departLane="random" departSpeed="1.00" color="1,0,1">
        <walk from="923261416" busStop="923261416" speed="1.5"/>
        <stop busStop="923261416" duration="3000"/>
    </person>
    <person id="person_76" depart="880" departLane="random" departSpeed="1.00" color="1,0,1">
        <walk from="923261416" busStop="923261416" speed="1.5"/>
        <stop busStop="923261416" duration="3000"/>
    </person>
    <person id="person_77" depart="880" departLane="random" departSpeed="1.00" color="1,0,1">
        <walk from="923261416" busStop="923261416" speed="1.5"/>
        <stop busStop="923261416" duration="3000"/>
    </person>
    <person id="person_78" depart="880" departLane="random" departSpeed="1.00" color="1,0,1">
        <walk from="923261416" busStop="923261416" speed="1.5"/>
        <stop busStop="923261416" duration="3000"/>
    </person>
    <person id="person_79" depart="880" departLane="random" departSpeed="1.00" color="1,0,1">
        <walk from="923261416" busStop="923261416" speed="1.5"/>
        <stop busStop="923261416" duration="3000"/>
    </person>
    <person id="person_80" depart="880" departLane="random" departSpeed="1.00" color="1,0,1">
        <walk from="923261416" busStop="923261416" speed="1.5"/>
        <stop busStop="923261416" duration="3000"/>
    </person>
    <person id="person_81" depart="880" departLane="random" departSpeed="1.00" color="1,0,1">
        <walk from="923261416" busStop="923261416" speed="1.5"/>
        <stop busStop="923261416" duration="3000"/>
    </person>
    <person id="person_82" depart="880" departLane="random" departSpeed="1.00" color="0,1,0">
        <walk from="119883577#8" busStop="119883577#8" speed="1.5"/>
        <ride line="jeepney_0" busStop="119883577#8" to="-187486758#1"/>
        <walk edges="-187486758#1" speed="1.5"/>
     </person>
     <person id="person_83" depart="880" departLane="random" departSpeed="1.00" color="0,1,0">
        <walk from="923261416" busStop="923261416" speed="1.5"/>
        <ride line="jeepney_0" busStop="923261416" to="1176045777"/>
        <walk edges="1176045777" speed="1.5"/>
     </person>
    <person id="person_84" depart="890" departLane="random" departSpeed="1.00" color="1,0,1">
        <walk from="694268909#0" busStop="694268909#0" speed="1.5"/>
        <stop busStop="694268909#0" duration="3000"/>
    </person>
    <person id="person_85" depart="890" departLane="random" departSpeed="1.00" color="1,0,1">
        <walk from="694268909#0" busStop="694268909#0" speed="1.5"/>
        <stop busStop="694268909#0" duration="3000"/>
    </person>
    <person id="person_86" depart="890" departLane="random" departSpeed="1.00" color="1,0,1">
        <walk from="694268909#0" busStop="694268909#0" speed="1.5"/>
        <stop busStop="694268909#0" duration="3000"/>
    </person>
    <person id="person_87" depart="890" departLane="random" departSpeed="1.00" color="1,0,1">
        <walk from="694268909#0" busStop="694268909#0" speed="1.5"/>
        <stop busStop="694268909#0" duration="3000"/>
    </person>
    <person id="person_88" depart="890" departLane="random" departSpeed="1.00" color="1,0,1">
        <walk from="694268909#0" busStop="694268909#0" speed="1.5"/>
        <stop busStop="694268909#0" duration="3000"/>
    </person>
    <person id="person_89" depart="890" departLane="random" departSpeed="1.00" color="0,1,0">
        <walk from="694268909#0" busStop="694268909#0" speed="1.5"/>
        <ride line="jeepney_0" busStop="694268909#0" to="923261416"/>
        <walk edges="923261416" speed="1.5"/>
     </person>
     <person id="person_90" depart="890" departLane="random" departSpeed="1.00" color="0,1,0">
        <walk from="694268909#0" busStop="694268909#0" speed="1.5"/>
        <ride line="jeepney_0" busStop="694268909#0" to="923261416"/>
        <walk edges="923261416" speed="1.5"/>
     </person>
     <person id="person_100" depart="890" departLane="random" departSpeed="1.00" color="0,1,0">
        <walk from="694268909#0" busStop="694268909#0" speed="1.5"/>
        <ride line="jeepney_0" busStop="694268909#0" to="923261416"/>
        <walk edges="923261416" speed="1.5"/>
     </person>
     <person id="person_101" depart="890" departLane="random" departSpeed="1.00" color="0,1,0">
        <walk from="694268909#0" busStop="694268909#0" speed="1.5"/>
        <ride line="jeepney_0" busStop="694268909#0" to="923261416"/>
        <walk edges="923261416" speed="1.5"/>
     </person>
     <person id="person_102" depart="890" departLane="random" departSpeed="1.00" color="0,1,0">
        <walk from="694268909#0" busStop="694268909#0" speed="1.5"/>
        <ride line="jeepney_0" busStop="694268909#0" to="923261416"/>
        <walk edges="923261416" speed="1.5"/>
     </person>
     <person id="person_103" depart="890" departLane="random" departSpeed="1.00" color="0,1,0">
        <walk from="694268909#0" busStop="694268909#0" speed="1.5"/>
        <ride line="jeepney_0" busStop="694268909#0" to="923261416"/>
        <walk edges="923261416" speed="1.5"/>
     </person>
    <person id="person_104" depart="900" departLane="random" departSpeed="1.00" color="1,0,1">
        <walk from="694268909#0" busStop="694268909#0" speed="1.5"/>
        <stop busStop="694268909#0" duration="3000"/>
    </person>
    <person id="person_105" depart="900" departLane="random" departSpeed="1.00" color="1,0,1">
        <walk from="694268909#0" busStop="694268909#0" speed="1.5"/>
        <stop busStop="694268909#0" duration="3000"/>
    </person>
    <person id="person_106" depart="900" departLane="random" departSpeed="1.00" color="1,0,1">
        <walk from="694268909#0" busStop="694268909#0" speed="1.5"/>
        <stop busStop="694268909#0" duration="3000"/>
    </person>
    <person id="person_107" depart="900" departLane="random" departSpeed="1.00" color="1,0,1">
        <walk from="694268909#0" busStop="694268909#0" speed="1.5"/>
        <stop busStop="694268909#0" duration="3000"/>
    </person>
    <person id="person_108" depart="900" departLane="random" departSpeed="1.00" color="1,0,1">
        <walk from="694268909#0" busStop="694268909#0" speed="1.5"/>
        <stop busStop="694268909#0" duration="3000"/>
    </person>
    <person id="person_109" depart="900" departLane="random" departSpeed="1.00" color="0,1,0">
        <walk from="694268909#0" busStop="694268909#0" speed="1.5"/>
        <ride line="jeepney_0" busStop="694268909#0" to="-133342495#1"/>
        <walk edges="-133342495#1" speed="1.5"/>
     </person>
     <person id="person_110" depart="900" departLane="random" departSpeed="1.00" color="1,0,1">
        <walk from="694268909#0" busStop="694268909#0" speed="1.5"/>
        <stop busStop="694268909#0" duration="3000"/>
    </person>
    <person id="person_111" depart="900" departLane="random" departSpeed="1.00" color="1,0,1">
        <walk from="694268909#0" busStop="694268909#0" speed="1.5"/>
        <stop busStop="694268909#0" duration="3000"/>
    </person>
    <person id="person_112" depart="900" departLane="random" departSpeed="1.00" color="0,1,0">
        <walk from="694268909#0" busStop="694268909#0" speed="1.5"/>
        <ride line="jeepney_0" busStop="694268909#0" to="-133342495#1"/>
        <walk edges="-133342495#1" speed="1.5"/>
     </person>

     <!-- 15 -->
     <!-- 1 rider 694268909#0    6 walker -->
    <person id="person_113" depart="920" departLane="random" departSpeed="1.00" color="1,0,1">
        <walk from="694268909#0" busStop="694268909#0" speed="1.5"/>
        <stop busStop="694268909#0" duration="3000"/>
    </person>
    <person id="person_114" depart="920" departLane="random" departSpeed="1.00" color="1,0,1">
        <walk from="694268909#0" busStop="694268909#0" speed="1.5"/>
        <stop busStop="694268909#0" duration="3000"/>
    </person>
    <person id="person_115" depart="920" departLane="random" departSpeed="1.00" color="1,0,1">
        <walk from="694268909#0" busStop="694268909#0" speed="1.5"/>
        <stop busStop="694268909#0" duration="3000"/>
    </person>
    <person id="person_116" depart="920" departLane="random" departSpeed="1.00" color="1,0,1">
        <walk from="694268909#0" busStop="694268909#0" speed="1.5"/>
        <stop busStop="694268909#0" duration="3000"/>
    </person>
    <person id="person_117" depart="920" departLane="random" departSpeed="1.00" color="1,0,1">
        <walk from="694268909#0" busStop="694268909#0" speed="1.5"/>
        <stop busStop="694268909#0" duration="3000"/>
    </person>
    <person id="person_118" depart="920" departLane="random" departSpeed="1.00" color="1,0,1">
        <walk from="694268909#0" busStop="694268909#0" speed="1.5"/>
        <stop busStop="694268909#0" duration="3000"/>
    </person>
    <person id="person_119" depart="920" departLane="random" departSpeed="1.00" color="0,1,0">
        <walk from="694268909#0" busStop="694268909#0" speed="1.5"/>
        <ride line="jeepney_0" busStop="694268909#0" to="-133342495#1"/>
        <walk edges="-133342495#1" speed="1.5"/>
     </person>
     <!-- 2 RIDER    9 walker 694268909#1 -->
     <person id="person_120" depart="940" departLane="random" departSpeed="1.00" color="1,0,0">
        <walk from="694268909#1" busStop="694268909#1" speed="1.5"/>