<?xml version='1.0' encoding='utf-8'?>
<routes>



    
    
    
    <person id="person_1" depart="40" departLane="random" departSpeed="1.00" color="1,0,1">
        <walk from="29377703#4" busStop="29377703#4" speed="1.5" />
        <stop busStop="29377703#4" duration="3000" />
    </person> 
    <person id="person_2" depart="40" departLane="random" departSpeed="1.00" color="1,0,1">
        <walk from="29377703#4" busStop="29377703#4" speed="1.5" />
        <stop busStop="29377703#4" duration="3000" />
    </person> 
    
    <person id="person_3" depart="50" departLane="random" departSpeed="1.00" color="1,0,0">
        <walk from="29377703#4" busStop="29377703#4" speed="1.5" />
        <stop busStop="29377703#4" duration="3000" />
        <walk from="29377703#4" to="303412427#16" speed="1.5" />
    </person>
    <person id="person_4" depart="50" departLane="random" departSpeed="1.00" color="1,0,0">
        <walk from="29377703#4" busStop="29377703#4" speed="1.5" />
        <stop busStop="29377703#4" duration="3000" />
        <walk from="29377703#4" to="303412427#16" speed="1.5" />
    </person>
    
    
    <person id="person_5" depart="120" departLane="random" departSpeed="1.00" color="1,0,1">
        <walk from="303412427#2" busStop="303412427#2" speed="1.5" />
        <stop busStop="303412427#2" duration="3000" />
    </person> 
    <person id="person_6" depart="130" departLane="random" departSpeed="1.00" color="1,0,1">
        <walk from="303412427#2" busStop="303412427#2" speed="1.5" />
        <stop busStop="303412427#2" duration="3000" />
    </person> 
    
    
    <person id="person_7" depart="180" departLane="random" departSpeed="1.00" color="0,1,0">
        <walk from="303412427#2" busStop="303412427#2" speed="1.5" />
        <ride line="jeepney_0" busStop="303412427#2" to="615456195" lines="jeepney_0 jeepney_1 modernjeepney_0 modernjeepney_1" />
        <walk edges="615456195" speed="1.5" />
     </person>
     <person id="person_8" depart="180" departLane="random" departSpeed="1.00" color="0,1,0">
        <walk from="303412427#2" busStop="303412427#2" speed="1.5" />
        <ride line="jeepney_0" busStop="303412427#2" to="615456195" lines="jeepney_0 jeepney_1 modernjeepney_0 modernjeepney_1" />
        <walk edges="615456195" speed="1.5" />
     </person>
    
    
    <person id="person_9" depart="240" departLane="random" departSpeed="1.00" color="0,1,0">
        <walk from="303412427#6" busStop="303412427#6" speed="1.5" />
        <ride line="jeepney_0" busStop="303412427#6" to="615456195" lines="jeepney_0 jeepney_1 modernjeepney_0 modernjeepney_1" />
        <walk edges="615456195" speed="1.5" />
     </person>
    
    
    <person id="person_10" depart="300" departLane="random" departSpeed="1.00" color="0,1,0">
        <walk from="303412427#7" busStop="303412427#7" speed="1.5" />
        <ride line="jeepney_0" busStop="303412427#7" to="615456195" lines="jeepney_0 jeepney_1 modernjeepney_0 modernjeepney_1" />
        <walk edges="615456195" speed="1.5" />
     </person>
    
    <person id="person_11" depart="300" departLane="random" departSpeed="1.00" color="1,0,1">
        <walk from="303412427#11" busStop="303412427#11" speed="1.5" />
        <stop busStop="303412427#11" duration="3000" />
    </person> 
    <person id="person_12" depart="300" departLane="random" departSpeed="1.00" color="1,0,1">
        <walk from="303412427#11" busStop="303412427#11" speed="1.5" />
        <stop busStop="303412427#11" duration="3000" />
    </person> 
    
    
    <person id="person_13" depart="360" departLane="random" departSpeed="1.00" color="1,0,0">
        <walk from="303412427#12" busStop="303412427#12" speed="1.5" />
        <stop busStop="303412427#12" duration="3000" />
        <walk from="303412427#12" to="303412427#6" speed="1.5" />
    </person>
    
    
    <person id="person_14" depart="420" departLane="random" departSpeed="1.00" color="0,1,0">
        <walk from="303412427#15" busStop="303412427#15" speed="1.5" />
        <ride line="jeepney_0" busStop="303412427#15" to="615456195" lines="jeepney_0 jeepney_1 modernjeepney_0 modernjeepney_1" />
        <walk edges="615456195" speed="1.5" />
     </person>
     <person id="person_15" depart="420" departLane="random" departSpeed="1.00" color="0,1,0">
        <walk from="303412427#15" busStop="303412427#15" speed="1.5" />
        <ride line="jeepney_0" busStop="303412427#15" to="615456195" lines="jeepney_0 jeepney_1 modernjeepney_0 modernjeepney_1" />
        <walk edges="615456195" speed="1.5" />
     </person>
    
    <person id="person_16" depart="420" departLane="random" departSpeed="1.00" color="1,0,0">
        <walk from="31327474#1" busStop="31327474#1" speed="1.5" />
        <stop busStop="31327474#1" duration="3000" />
        <walk from="31327474#1" to="924607337#4" speed="1.5" />
    </person>
    <person id="person_17" depart="420" departLane="random" departSpeed="1.00" color="1,0,0">
        <walk from="31327474#1" busStop="31327474#1" speed="1.5" />
        <stop busStop="31327474#1" duration="3000" />
        <walk from="31327474#1" to="924607337#4" speed="1.5" />
    </person>
    <person id="person_18" depart="420" departLane="random" departSpeed="1.00" color="1,0,0">
        <walk from="31327474#1" busStop="31327474#1" speed="1.5" />
        <stop busStop="31327474#1" duration="3000" />
        <walk from="31327474#1" to="924607337#4" speed="1.5" />
    </person>
    
    
    <person id="person_19" depart="480" departLane="random" departSpeed="1.00" color="1,0,1">
        <walk from="303412427#18" busStop="303412427#18" speed="1.5" />
        <stop busStop="303412427#18" duration="3000" />
    </person> 
    <person id="person_20" depart="480" departLane="random" departSpeed="1.00" color="1,0,1">
        <walk from="303412427#18" busStop="303412427#18" speed="1.5" />
        <stop busStop="303412427#18" duration="3000" />
    </person> 
    
    
    <person id="person_21" depart="540" departLane="random" departSpeed="1.00" color="0,1,0">
        <walk from="924607337#0" busStop="924607337#0" speed="1.5" />
        <ride line="jeepney_0" busStop="924607337#0" to="708734829" lines="jeepney_0 jeepney_1 modernjeepney_0 modernjeepney_1" />
        <walk edges="708734829" speed="1.5" />
     </person>
     <person id="person_22" depart="540" departLane="random" departSpeed="1.00" color="0,1,0">
        <walk from="924607337#0" busStop="924607337#0" speed="1.5" />
        <ride line="jeepney_0" busStop="924607337#0" to="708734829" lines="jeepney_0 jeepney_1 modernjeepney_0 modernjeepney_1" />
        <walk edges="708734829" speed="1.5" />
     </person>
     
    
    <person id="person_23" depart="570" departLane="random" departSpeed="1.00" color="0,1,0">
        <walk from="924607337#2" busStop="924607337#2" speed="1.5" />
        <ride line="jeepney_0" busStop="924607337#2" to="615456193#1" lines="jeepney_0 jeepney_1 modernjeepney_0 modernjeepney_1" />
        <walk edges="615456193#1" speed="1.5" />
     </person>
     
     <person id="person_24" depart="570" departLane="random" departSpeed="1.00" color="1,0,0">
        <walk from="924607337#4" busStop="924607337#4" speed="1.5" />
        <stop busStop="924607337#4" duration="3000" />
        <walk from="924607337#4" to="615456193#0" speed="1.5" />
    </person>
    <person id="person_25" depart="570" departLane="random" departSpeed="1.00" color="1,0,0">
        <walk from="924607337#4" busStop="924607337#4" speed="1.5" />
        <stop busStop="924607337#4" duration="3000" />
        <walk from="924607337#4" to="615456193#0" speed="1.5" />
    </person>
    <person id="person_26" depart="570" departLane="random" departSpeed="1.00" color="1,0,0">
        <walk from="924607337#4" busStop="924607337#4" speed="1.5" />
        <stop busStop="924607337#4" duration="3000" />
        <walk from="924607337#4" to="615456193#0" speed="1.5" />
    </person>
    
    
    <person id="person_27" depart="795" departLane="random" departSpeed="1.00" color="0,1,0">
        <walk from="615456195" busStop="615456195" speed="1.5" />
        <ride line="jeepney_0" busStop="615456195" to="923261416" lines="jeepney_0 jeepney_1 modernjeepney_0 modernjeepney_1" />
        <walk edges="923261416" speed="1.5" />
     </person>
     <person id="person_28" depart="795" departLane="random" departSpeed="1.00" color="0,1,0">
        <walk from="615456195" busStop="615456195" speed="1.5" />
        <ride line="jeepney_0" busStop="615456195" to="575729552#1" lines="jeepney_0 jeepney_1 modernjeepney_0 modernjeepney_1" />
        <walk edges="575729552#1" speed="1.5" />
     </person>
     <person id="person_29" depart="795" departLane="random" departSpeed="1.00" color="0,1,0">
        <walk from="615456195" busStop="615456195" speed="1.5" />
        <ride line="jeepney_0" busStop="615456195" to="575729552#1" lines="jeepney_0 jeepney_1 modernjeepney_0 modernjeepney_1" />
        <walk edges="575729552#1" speed="1.5" />
     </person>
    
    <person id="person_30" depart="835" departLane="random" departSpeed="1.00" color="0,1,0">
        <walk from="615456195" busStop="615456195" speed="1.5" />
        <ride line="jeepney_0" busStop="615456195" to="575729552#1" lines="jeepney_0 jeepney_1 modernjeepney_0 modernjeepney_1" />
        <walk edges="575729552#1" speed="1.5" />
     </person>
     <person id="person_30" depart="835" departLane="random" departSpeed="1.00" color="0,1,0">
        <walk from="615456195" busStop="615456195" speed="1.5" />
        <ride line="jeepney_0" busStop="615456195" to="923261416" lines="jeepney_0 jeepney_1 modernjeepney_0 modernjeepney_1" />
        <walk edges="923261416" speed="1.5" />
     </person>
     <person id="person_30" depart="835" departLane="random" departSpeed="1.00" color="0,1,0">
        <walk from="615456195" busStop="615456195" speed="1.5" />
        <ride line="jeepney_0" busStop="615456195" to="575729552#1" lines="jeepney_0 jeepney_1 modernjeepney_0 modernjeepney_1" />
        <walk edges="575729552#1" speed="1.5" />
     </person>
    
    <person id="person_31" depart="835" departLane="random" departSpeed="1.00" color="1,0,1">
        <walk from="615456195" busStop="615456195" speed="1.5" />
        <stop busStop="615456195" duration="3000" />
    </person> 
    
    
    <person id="person_32" depart="840" departLane="random" departSpeed="1.00" color="1,0,0">
        <walk from="615456195" busStop="615456195" speed="1.5" />
        <stop busStop="615456195" duration="3000" />
        <walk from="615456195" to="615456193#0" speed="1.5" />
    </person>
    
    <person id="person_33" depart="840" departLane="random" departSpeed="1.00" color="1,0,0">
        <walk from="615456195" busStop="615456195" speed="1.5" />
        <stop busStop="615456195" duration="3000" />
        <walk from="615456195" to="615456194" speed="1.5" />
    </person>
    
    
    <person id="person_34" depart="1080" departLane="random" departSpeed="1.00" color="1,0,1">
        <walk from="368461882#1" busStop="368461882#1" speed="1.5" />
        <stop busStop="368461882#1" duration="3000" />
    </person> 
    <person id="person_35" depart="1080" departLane="random" departSpeed="1.00" color="1,0,1">
        <walk from="368461882#1" busStop="368461882#1" speed="1.5" />
        <stop busStop="368461882#1" duration="3000" />
    </person> 
    <person id="person_36" depart="1080" departLane="random" departSpeed="1.00" color="1,0,1">
        <walk from="368461882#1" busStop="368461882#1" speed="1.5" />
        <stop busStop="368461882#1" duration="3000" />
    </person> 
    
    <person id="person_37" depart="1080" departLane="random" departSpeed="1.00" color="1,0,0">
        <walk from="923261416" busStop="923261416" speed="1.5" />
        <stop busStop="923261416" duration="3000" />
        <walk from="923261416" to="368461882#1" speed="1.5" />
    </person>
    <person id="person_38" depart="1080" departLane="random" departSpeed="1.00" color="1,0,0">
        <walk from="923261416" busStop="923261416" speed="1.5" />
        <stop busStop="923261416" duration="3000" />
        <walk from="923261416" to="368461882#1" speed="1.5" />
    </person>
    
    
    <person id="person_39" depart="1140" departLane="random" departSpeed="1.00" color="1,0,0">
        <walk from="923261416" busStop="923261416" speed="1.5" />
        <stop busStop="923261416" duration="3000" />
        <walk from="923261416" to="1176045778" speed="1.5" />
    </person>
    <person id="person_40" depart="1140" departLane="random" departSpeed="1.00" color="1,0,0">
        <walk from="923261416" busStop="923261416" speed="1.5" />
        <stop busStop="923261416" duration="3000" />
        <walk from="923261416" to="1176045778" speed="1.5" />
    </person>
    <person id="person_41" depart="1140" departLane="random" departSpeed="1.00" color="1,0,0">
        <walk from="923261416" busStop="923261416" speed="1.5" />
        <stop busStop="923261416" duration="3000" />
        <walk from="923261416" to="1176045778" speed="1.5" />
    </person>
    <person id="person_42" depart="1140" departLane="random" departSpeed="1.00" color="1,0,0">
        <walk from="923261416" busStop="923261416" speed="1.5" />
        <stop busStop="923261416" duration="3000" />
        <walk from="923261416" to="1176045778" speed="1.5" />
    </person>
    <person id="person_43" depart="1140" departLane="random" departSpeed="1.00" color="1,0,0">
        <walk from="923261416" busStop="923261416" speed="1.5" />
        <stop busStop="923261416" duration="3000" />
        <walk from="923261416" to="1176045778" speed="1.5" />
    </person>
     
    
    <person id="person_44" depart="1200" departLane="random" departSpeed="1.00" color="0,1,0">
        <walk from="694268909#1" busStop="694268909#1" speed="1.5" />
        <ride line="jeepney_0" busStop="694268909#1" to="-4332734#1" lines="jeepney_0 jeepney_1 modernjeepney_0 modernjeepney_1" />
        <walk edges="-4332734#1" speed="1.5" />
     </person>
     <person id="person_45" depart="1200" departLane="random" departSpeed="1.00" color="0,1,0">
        <walk from="694268909#1" busStop="694268909#1" speed="1.5" />
        <ride line="jeepney_0" busStop="694268909#1" to="-4332734#1" lines="jeepney_0 jeepney_1 modernjeepney_0 modernjeepney_1" />
        <walk edges="-4332734#1" speed="1.5" />
     </person>
     <person id="person_46" depart="1200" departLane="random" departSpeed="1.00" color="0,1,0">
        <walk from="694268909#1" busStop="694268909#1" speed="1.5" />
        <ride line="jeepney_0" busStop="694268909#1" to="4332731" lines="jeepney_0 jeepney_1 modernjeepney_0 modernjeepney_1" />
        <walk edges="4332731" speed="1.5" />
     </person>
     <person id="person_47" depart="1200" departLane="random" departSpeed="1.00" color="0,1,0">
        <walk from="694268909#1" busStop="694268909#1" speed="1.5" />
        <ride line="jeepney_0" busStop="694268909#1" to="4332731" lines="jeepney_0 jeepney_1 modernjeepney_0 modernjeepney_1" />
        <walk edges="4332731" speed="1.5" />
     </person>
     <person id="person_48" depart="1200" departLane="random" departSpeed="1.00" color="0,1,0">
        <walk from="694268909#1" busStop="694268909#1" speed="1.5" />
        <ride line="jeepney_0" busStop="694268909#1" to="-4332734#1" lines="jeepney_0 jeepney_1 modernjeepney_0 modernjeepney_1" />
        <walk edges="-4332734#1" speed="1.5" />
     </person>
     
     <person id="person_49" depart="1200" departLane="random" departSpeed="1.00" color="1,0,1">
        <walk from="694268909#1" busStop="694268909#1" speed="1.5" />
        <stop busStop="694268909#1" duration="3000" />
    </person> 
    <person id="person_50" depart="1200" departLane="random" departSpeed="1.00" color="1,0,1">
        <walk from="694268909#1" busStop="694268909#1" speed="1.5" />
        <stop busStop="694268909#1" duration="3000" />
    </person> 
     
    
    <person id="person_51" depart="1260" departLane="random" departSpeed="1.00" color="1,0,0">
        <walk from="1176045778" busStop="1176045778" speed="1.5" />
        <stop busStop="1176045778" duration="3000" />
        <walk from="1176045778" to="-29254795#0" speed="1.5" />
    </person>
    <person id="person_52" depart="1260" departLane="random" departSpeed="1.00" color="1,0,0">
        <walk from="1176045778" busStop="1176045778" speed="1.5" />
        <stop busStop="1176045778" duration="3000" />
        <walk from="1176045778" to="-29254795#0" speed="1.5" />
    </person>
    <person id="person_53" depart="1260" departLane="random" departSpeed="1.00" color="1,0,0">
        <walk from="1176045778" busStop="1176045778" speed="1.5" />
        <stop busStop="1176045778" duration="3000" />
        <walk from="1176045778" to="-29254795#0" speed="1.5" />
    </person>
    <person id="person_54" depart="1260" departLane="random" departSpeed="1.00" color="1,0,0">
        <walk from="1176045778" busStop="1176045778" speed="1.5" />
        <stop busStop="1176045778" duration="3000" />
        <walk from="1176045778" to="-29254795#0" speed="1.5" />
    </person>
    
    <person id="person_55" depart="1260" departLane="random" departSpeed="1.00" color="1,0,1">
        <walk from="82694445#0" busStop="82694445#0" speed="1.5" />
        <stop busStop="82694445#0" duration="3000" />
    </person> 
    <person id="person_56" depart="1260" departLane="random" departSpeed="1.00" color="1,0,1">
        <walk from="82694445#0" busStop="82694445#0" speed="1.5" />
        <stop busStop="82694445#0" duration="3000" />
    </person> 
    
    <person id="person_57" depart="1290" departLane="random" departSpeed="1.00" color="1,0,0">
        <walk from="82694445#1" busStop="82694445#1" speed="1.5" />
        <stop busStop="82694445#1" duration="3000" />
        <walk from="82694445#1" to="694268909#1" speed="1.5" />
    </person>
    <person id="person_58" depart="1290" departLane="random" departSpeed="1.00" color="1,0,0">
        <walk from="82694445#1" busStop="82694445#1" speed="1.5" />
        <stop busStop="82694445#1" duration="3000" />
        <walk from="82694445#1" to="694268909#1" speed="1.5" />
    </person>
    <person id="person_59" depart="1290" departLane="random" departSpeed="1.00" color="1,0,0">
        <walk from="82694445#1" busStop="82694445#1" speed="1.5" />
        <stop busStop="82694445#1" duration="3000" />
        <walk from="82694445#1" to="694268909#1" speed="1.5" />
    </person>
    <person id="person_60" depart="1290" departLane="random" departSpeed="1.00" color="1,0,0">
        <walk from="82694445#1" busStop="82694445#1" speed="1.5" />
        <stop busStop="82694445#1" duration="3000" />
        <walk from="82694445#1" to="694268909#1" speed="1.5" />
    </person>
    <person id="person_61" depart="1290" departLane="random" departSpeed="1.00" color="1,0,0">
        <walk from="82694445#1" busStop="82694445#1" speed="1.5" />
        <stop busStop="82694445#1" duration="3000" />
        <walk from="82694445#1" to="694268909#1" speed="1.5" />
    </person>
    <person id="person_62" depart="1290" departLane="random" departSpeed="1.00" color="1,0,0">
        <walk from="82694445#1" busStop="82694445#1" speed="1.5" />
        <stop busStop="82694445#1" duration="3000" />
        <walk from="82694445#1" to="694268909#1" speed="1.5" />
    </person>
    
    <person id="person_63" depart="1300" departLane="random" departSpeed="1.00" color="0,1,0">
        <walk from="1176045777" busStop="1176045777" speed="1.5" />
        <ride line="jeepney_0" busStop="1176045777" to="-4332734#1" lines="jeepney_0 jeepney_1 modernjeepney_0 modernjeepney_1" />
        <walk edges="-4332734#1" speed="1.5" />
     </person>
    
    <person id="person_64" depart="1300" departLane="random" departSpeed="1.00" color="1,0,0">
        <walk from="1176045777" busStop="1176045777" speed="1.5" />
        <stop busStop="1176045777" duration="3000" />
        <walk from="1176045777" to="694268909#1" speed="1.5" />
    </person>
    <person id="person_65" depart="1300" departLane="random" departSpeed="1.00" color="1,0,0">
        <walk from="1176045777" busStop="1176045777" speed="1.5" />
        <stop busStop="1176045777" duration="3000" />
        <walk from="1176045777" to="694268909#1" speed="1.5" />
    </person>
    <person id="person_66" depart="1300" departLane="random" departSpeed="1.00" color="1,0,0">
        <walk from="1176045777" busStop="1176045777" speed="1.5" />
        <stop busStop="1176045777" duration="3000" />
        <walk from="1176045777" to="694268909#1" speed="1.5" />
    </person>
    
    
    <person id="person_66" depart="1440" departLane="random" departSpeed="1.00" color="1,0,0">
        <walk from="82694458#0" busStop="82694458#0" speed="1.5" />
        <stop busStop="82694458#0" duration="3000" />
        <walk from="82694458#0" to="694268909#1" speed="1.5" />
    </person>
    <person id="person_67" depart="1440" departLane="random" departSpeed="1.00" color="1,0,0">
        <walk from="82694458#0" busStop="82694458#0" speed="1.5" />
        <stop busStop="82694458#0" duration="3000" />
        <walk from="82694458#0" to="694268909#1" speed="1.5" />
    </person>
    <person id="person_68" depart="1440" departLane="random" departSpeed="1.00" color="1,0,0">
        <walk from="82694458#0" busStop="82694458#0" speed="1.5" />
        <stop busStop="82694458#0" duration="3000" />
        <walk from="82694458#0" to="694268909#1" speed="1.5" />
    </person>
    
    <person id="person_69" depart="1450" departLane="random" departSpeed="1.00" color="0,1,0">
        <walk from=" 82694458#0" busStop="82694458#0" speed="1.5" />
        <ride line="jeepney_0" busStop="82694458#0" to="-4332734#1" lines="jeepney_0 jeepney_1 modernjeepney_0 modernjeepney_1" />
        <walk edges="-4332734#1" speed="1.5" />
     </person>
    
    
    <person id="person_70" depart="1620" departLane="random" departSpeed="1.00" color="1,0,1">
        <walk from="575729552#1" busStop="575729552#1" speed="1.5" />
        <stop busStop="575729552#1" duration="3000" />
    </person> 
    <person id="person_71" depart="1620" departLane="random" departSpeed="1.00" color="1,0,1">
        <walk from="575729552#1" busStop="575729552#1" speed="1.5" />
        <stop busStop="575729552#1" duration="3000" />
    </person> 
    <person id="person_72" depart="1620" departLane="random" departSpeed="1.00" color="1,0,1">
        <walk from="575729552#1" busStop="575729552#1" speed="1.5" />
        <stop busStop="575729552#1" duration="3000" />
    </person> 
    <person id="person_73" depart="1620" departLane="random" departSpeed="1.00" color="1,0,1">
        <walk from="575729552#1" busStop="575729552#1" speed="1.5" />
        <stop busStop="575729552#1" duration="3000" />
    </person> 
    
    <person id="person_74" depart="1620" departLane="random" departSpeed="1.00" color="0,1,0">
        <walk from="575729552#1" busStop="575729552#1" speed="1.5" />
        <ride line="jeepney_0" busStop="575729552#1" to="-4332734#1" lines="jeepney_0 jeepney_1 modernjeepney_0 modernjeepney_1" />
        <walk edges="-4332734#1" speed="1.5" />
     </person>
    
    <person id="person_75" depart="1640" departLane="random" departSpeed="1.00" color="1,0,0">
        <walk from="4086429" busStop="4086429" speed="1.5" />
        <stop busStop="4086429" duration="3000" />
        <walk from="4086429" to="575729552#1" speed="1.5" />
    </person>
    <person id="person_76" depart="1640" departLane="random" departSpeed="1.00" color="1,0,0">
        <walk from="4086429" busStop="4086429" speed="1.5" />
        <stop busStop="4086429" duration="3000" />
        <walk from="4086429" to="575729552#1" speed="1.5" />
    </person>
    <person id="person_77" depart="1640" departLane="random" departSpeed="1.00" color="1,0,0">
        <walk from="4086429" busStop="4086429" speed="1.5" />
        <stop busStop="4086429" duration="3000" />
        <walk from="4086429" to="575729552#1" speed="1.5" />
    </person>
    <person id="person_78" depart="1640" departLane="random" departSpeed="1.00" color="1,0,0">
        <walk from="4086429" busStop="4086429" speed="1.5" />
        <stop busStop="4086429" duration="3000" />
        <walk from="4086429" to="575729552#1" speed="1.5" />
    </person>
    
    
    <person id="person_79" depart="1650" departLane="random" departSpeed="1.00" color="1,0,1">
        <walk from="-575729108#2" busStop="-575729108#2" speed="1.5" />
        <stop busStop="-575729108#2" duration="3000" />
    </person> 
    
    <person id="person_80" depart="1650" departLane="random" departSpeed="1.00" color="1,0,1">
        <walk from="-940627086" busStop="-940627086" speed="1.5" />
        <stop busStop="-940627086" duration="3000" />
    </person> 
    <person id="person_81" depart="1650" departLane="random" departSpeed="1.00" color="1,0,1">
        <walk from="-940627086" busStop="-940627086" speed="1.5" />
        <stop busStop="-940627086" duration="3000" />
    </person> 
    <person id="person_82" depart="1650" departLane="random" departSpeed="1.00" color="1,0,1">
        <walk from="-940627086" busStop="-940627086" speed="1.5" />
        <stop busStop="-940627086" duration="3000" />
    </person> 
    
    <person id="person_83" depart="1660" departLane="random" departSpeed="1.00" color="0,1,0">
        <walk from="-940627086" busStop="-940627086" speed="1.5" />
        <ride line="jeepney_0" busStop="-940627086" to="-48630242#2" lines="jeepney_0 jeepney_1 modernjeepney_0 modernjeepney_1" />
        <walk edges="-48630242#2" speed="1.5" />
     </person>
    
    
    <person id="person_84" depart="1780" departLane="random" departSpeed="1.00" color="1,0,0">
        <walk from="-4332734#1" busStop="-4332734#1" speed="1.5" />
        <stop busStop="-4332734#1" duration="3000" />
        <walk from="-4332734#1" to="-24248441#1" speed="1.5" />
    </person>
     
    
    <person id="person_85" depart="1800" departLane="random" departSpeed="1.00" color="1,0,1">
        <walk from="-48630242#3" busStop="-48630242#3" speed="1.5" />
        <stop busStop="-48630242#3" duration="3000" />
    </person>
    
    
    <person id="person_86" depart="1830" departLane="random" departSpeed="1.00" color="0,1,0">
        <walk from="-48630242#2" busStop="-48630242#2" speed="1.5" />
        <ride line="jeepney_0" busStop="-48630242#2" to="-4588647#5" lines="jeepney_0 jeepney_1 modernjeepney_0 modernjeepney_1" />
        <walk edges="-4588647#5" speed="1.5" />
     </person>
    
    
    <person id="person_87" depart="2000" departLane="random" departSpeed="1.00" color="0,1,0">
        <walk from="706706674#0" busStop="706706674#0" speed="1.5" />
        <ride line="jeepney_0" busStop="706706674#0" to="136822582" lines="jeepney_0 jeepney_1 modernjeepney_0 modernjeepney_1" />
        <walk edges="136822582" speed="1.5" />
     </person>
    
    
    <person id="person_88" depart="2100" departLane="random" departSpeed="1.00" color="1,0,0">
        <walk from="820063579#0" busStop="820063579#0" speed="1.5" />
        <stop busStop="820063579#0" duration="3000" />
        <walk from="820063579#0" to="107396682#0" speed="1.5" />
    </person>
    <person id="person_89" depart="2100" departLane="random" departSpeed="1.00" color="1,0,0">
        <walk from="820063579#0" busStop="820063579#0" speed="1.5" />
        <stop busStop="820063579#0" duration="3000" />
        <walk from="820063579#0" to="107396682#0" speed="1.5" />
    </person>
    
    <person id="person_89" depart="2110" departLane="random" departSpeed="1.00" color="1,0,0">
        <walk from="820063579#1" busStop="820063579#1" speed="1.5" />
        <stop busStop="820063579#1" duration="3000" />
        <walk from="820063579#1" to="-1193896447" speed="1.5" />
    </person>
    <person id="person_90" depart="2110" departLane="random" departSpeed="1.00" color="1,0,0">
        <walk from="820063579#1" busStop="820063579#1" speed="1.5" />
        <stop busStop="820063579#1" duration="3000" />
        <walk from="820063579#1" to="-1193896447" speed="1.5" />
    </person>
    
    
    <person id="person_91" depart="2166" departLane="random" departSpeed="1.00" color="1,0,1">
        <walk from="107396681#7" busStop="107396681#7" speed="1.5" />
        <stop busStop="107396681#7" duration="3000" />
    </person>
    
    
    <person id="person_87" depart="2280" departLane="random" departSpeed="1.00" color="0,1,0">
        <walk from="-4588647#5" busStop="-4588647#5" speed="1.5" />
        <ride line="jeepney_0" busStop="-4588647#5" to="161754854#0" lines="jeepney_0 jeepney_1 modernjeepney_0 modernjeepney_1" />
        <walk edges="161754854#0" speed="1.5" />
     </person>
     <person id="person_88" depart="2280" departLane="random" departSpeed="1.00" color="0,1,0">
        <walk from="-4588647#5" busStop="-4588647#5" speed="1.5" />
        <ride line="jeepney_0" busStop="-4588647#5" to="161754854#0" lines="jeepney_0 jeepney_1 modernjeepney_0 modernjeepney_1" />
        <walk edges="161754854#0" speed="1.5" />
     </person>
     <person id="person_89" depart="2280" departLane="random" departSpeed="1.00" color="0,1,0">
        <walk from="-4588647#5" busStop="-4588647#5" speed="1.5" />
        <ride line="jeepney_0" busStop="-4588647#5" to="161754854#0" lines="jeepney_0 jeepney_1 modernjeepney_0 modernjeepney_1" />
        <walk edges="161754854#0" speed="1.5" />
     </person>
    
    <person id="person_90" depart="2280" departLane="random" departSpeed="1.00" color="1,0,0">
        <walk from="-4588647#5" busStop="-4588647#5" speed="1.5" />
        <stop busStop="-4588647#5" duration="3000" />
        <walk from="-4588647#5" to="-4588647#3" speed="1.5" />
    </person>
    
    
    <person id="person_91" depart="2460" departLane="random" departSpeed="1.00" color="0,1,0">
        <walk from="1182394700" busStop="1182394700" speed="1.5" />