<?xml version="1.0" ?>
<!-- 
    RIDER
    <person id="person_898" depart="1" departLane="random" departSpeed="1.00" color="0,1,0">
        <walk from="119883577#8" busStop="119883577#8" speed="1.5"/>
        <ride line="jeepney_0" busStop="119883577#8" to="-187486758#1"/>
        <walk edges="-187486758#1" speed="1.5"/>
     </person>

     WALKER
    <person id="person_473" depart="2" departLane="random" departSpeed="1.00" color="1,0,0">
        <walk from="31327474#1" busStop="31327474#1" speed="1.5"/>
        <stop busStop="31327474#1" duration="3000"/>
        <walk from="31327474#1" to="729164042#1" speed="1.5"/>
    </person>

    STANDER
    <person id="person_610" depart="2" departLane="random" departSpeed="1.00" color="1,0,1">
        <walk from="82694445#1" busStop="82694445#1" speed="1.5"/>
        <stop busStop="82694445#1" duration="3000"/>
    </person> 
    -->
<routes>

<!-- Legend of variables
    depart              Add 10 secs (Spawn time)
    departLane          random
    departSpeed         1.00
    color               0,1,0
    walk from           EDGE Where person is waiting
    speed               1.5
    stop busStop        EDGE Where person will unload
    duration            Duration of spawn == 3000 seconds

    walk from + busStop = SAME
    to + Walk edges     = Where to Stop
 -->

    <!-- https://youtu.be/K0QEn8bYTpc?si=JW4iR3UVXSSy4Xt8 -->
    <!-- 1 -->
    <!-- 2 stander 29377703#4  -->
    <person id="person_1" depart="30" departLane="random" departSpeed="1.00" color="1,0,1">
        <walk from="29377703#4" busStop="29377703#4" speed="1.5"/>
        <stop busStop="29377703#4" duration="3000"/>
    </person> 
    <person id="person_2" depart="30" departLane="random" departSpeed="1.00" color="1,0,1">
        <walk from="29377703#4" busStop="29377703#4" speed="1.5"/>
        <stop busStop="29377703#4" duration="3000"/>
    </person> 
    <!-- 2 walker 29377703#4 to 303412427#16  -->
    <person id="person_3" depart="40" departLane="random" departSpeed="1.00" color="1,0,0">
        <walk from="29377703#4" busStop="29377703#4" speed="1.5"/>
        <stop busStop="29377703#4" duration="3000"/>
        <walk from="29377703#4" to="303412427#16" speed="1.5"/>
    </person>
    <person id="person_4" depart="40" departLane="random" departSpeed="1.00" color="1,0,0">
        <walk from="29377703#4" busStop="29377703#4" speed="1.5"/>
        <stop busStop="29377703#4" duration="3000"/>
        <walk from="29377703#4" to="303412427#16" speed="1.5"/>
    </person>
    <!-- 2 -->
    <!-- 2 stander 303412427#2  -->
    <person id="person_5" depart="120" departLane="random" departSpeed="1.00" color="1,0,1">
        <walk from="303412427#2" busStop="303412427#2" speed="1.5"/>
        <stop busStop="303412427#2" duration="3000"/>
    </person> 
    <person id="person_6" depart="130" departLane="random" departSpeed="1.00" color="1,0,1">
        <walk from="303412427#2" busStop="303412427#2" speed="1.5"/>
        <stop busStop="303412427#2" duration="3000"/>
    </person> 
    <!-- 3 -->
    <!-- 2 rider 303412427#2 to 615456195 -->
    <person id="person_7" depart="180" departLane="random" departSpeed="1.00" color="0,1,0">
        <walk from="303412427#2" busStop="303412427#2" speed="1.5"/>
        <ride line="jeepney_0" busStop="303412427#2" to="615456195"/>
        <walk edges="615456195" speed="1.5"/>
     </person>
     <person id="person_8" depart="180" departLane="random" departSpeed="1.00" color="0,1,0">
        <walk from="303412427#2" busStop="303412427#2" speed="1.5"/>
        <ride line="jeepney_0" busStop="303412427#2" to="615456195"/>
        <walk edges="615456195" speed="1.5"/>
     </person>
    <!-- 4 -->
    <!-- 1 rider 303412427#6 to 615456195 -->
    <person id="person_9" depart="240" departLane="random" departSpeed="1.00" color="0,1,0">
        <walk from="303412427#6" busStop="303412427#6" speed="1.5"/>
        <ride line="jeepney_0" busStop="303412427#6" to="615456195"/>
        <walk edges="615456195" speed="1.5"/>
     </person>
    <!-- 5 -->
    <!-- 1 rider 303412427#7 -->
    <person id="person_10" depart="300" departLane="random" departSpeed="1.00" color="0,1,0">
        <walk from="303412427#7" busStop="303412427#7" speed="1.5"/>
        <ride line="jeepney_0" busStop="303412427#7" to="615456195"/>
        <walk edges="615456195" speed="1.5"/>
     </person>
    <!-- 2 stander 303412427#11 -->
    <person id="person_11" depart="300" departLane="random" departSpeed="1.00" color="1,0,1">
        <walk from="303412427#11" busStop="303412427#11" speed="1.5"/>
        <stop busStop="303412427#11" duration="3000"/>
    </person> 
    <person id="person_12" depart="300" departLane="random" departSpeed="1.00" color="1,0,1">
        <walk from="303412427#11" busStop="303412427#11" speed="1.5"/>
        <stop busStop="303412427#11" duration="3000"/>
    </person> 
    <!-- 6 -->
    <!-- 1 walker 303412427#12 to 303412427#6 -->
    <person id="person_13" depart="360" departLane="random" departSpeed="1.00" color="1,0,0">
        <walk from="303412427#12" busStop="303412427#12" speed="1.5"/>
        <stop busStop="303412427#12" duration="3000"/>
        <walk from="303412427#12" to="303412427#6" speed="1.5"/>
    </person>
    <!-- 7 -->
    <!-- 2 rider 303412427#15 to="615456195" -->
    <person id="person_14" depart="420" departLane="random" departSpeed="1.00" color="0,1,0">
        <walk from="303412427#15" busStop="303412427#15" speed="1.5"/>
        <ride line="jeepney_0" busStop="303412427#15" to="615456195"/>
        <walk edges="615456195" speed="1.5"/>
     </person>
     <person id="person_15" depart="420" departLane="random" departSpeed="1.00" color="0,1,0">
        <walk from="303412427#15" busStop="303412427#15" speed="1.5"/>
        <ride line="jeepney_0" busStop="303412427#15" to="615456195"/>
        <walk edges="615456195" speed="1.5"/>
     </person>
    <!-- 3 walker 303412427#17 to 924607337#4 -->
    <person id="person_16" depart="420" departLane="random" departSpeed="1.00" color="1,0,0">
        <walk from="31327474#1" busStop="31327474#1" speed="1.5"/>
        <stop busStop="31327474#1" duration="3000"/>
        <walk from="31327474#1" to="924607337#4" speed="1.5"/>
    </person>
    <person id="person_17" depart="420" departLane="random" departSpeed="1.00" color="1,0,0">
        <walk from="31327474#1" busStop="31327474#1" speed="1.5"/>
        <stop busStop="31327474#1" duration="3000"/>
        <walk from="31327474#1" to="924607337#4" speed="1.5"/>
    </person>
    <person id="person_18" depart="420" departLane="random" departSpeed="1.00" color="1,0,0">
        <walk from="31327474#1" busStop="31327474#1" speed="1.5"/>
        <stop busStop="31327474#1" duration="3000"/>
        <walk from="31327474#1" to="924607337#4" speed="1.5"/>
    </person>
    <!-- 8 -->
    <!-- 303412427#18 2 stander  -->
    <person id="person_19" depart="480" departLane="random" departSpeed="1.00" color="1,0,1">
        <walk from="303412427#18" busStop="303412427#18" speed="1.5"/>
        <stop busStop="303412427#18" duration="3000"/>
    </person> 
    <person id="person_20" depart="480" departLane="random" departSpeed="1.00" color="1,0,1">
        <walk from="303412427#18" busStop="303412427#18" speed="1.5"/>
        <stop busStop="303412427#18" duration="3000"/>
    </person> 
    <!-- 9 -->
    <!-- 924607337#0 2 rider to 708734829 -->
    <person id="person_21" depart="540" departLane="random" departSpeed="1.00" color="0,1,0">
        <walk from="924607337#0" busStop="924607337#0" speed="1.5"/>
        <ride line="jeepney_0" busStop="924607337#0" to="708734829"/>
        <walk edges="708734829" speed="1.5"/>
     </person>
     <person id="person_22" depart="540" departLane="random" departSpeed="1.00" color="0,1,0">
        <walk from="924607337#0" busStop="924607337#0" speed="1.5"/>
        <ride line="jeepney_0" busStop="924607337#0" to="708734829"/>
        <walk edges="708734829" speed="1.5"/>
     </person>
     <!-- 9 + 30s -->
    <!-- 924607337#2 1 rider to 615456193#1   -->
    <person id="person_23" depart="570" departLane="random" departSpeed="1.00" color="0,1,0">
        <walk from="924607337#2" busStop="924607337#2" speed="1.5"/>
        <ride line="jeepney_0" busStop="924607337#2" to="615456193#1"/>
        <walk edges="615456193#1" speed="1.5"/>
     </person>
     <!-- 3 walker to 924607337#4 to 615456193#0 -->
     <person id="person_24" depart="570" departLane="random" departSpeed="1.00" color="1,0,0">
        <walk from="924607337#4" busStop="924607337#4" speed="1.5"/>
        <stop busStop="924607337#4" duration="3000"/>
        <walk from="924607337#4" to="615456193#0" speed="1.5"/>
    </person>
    <person id="person_25" depart="570" departLane="random" departSpeed="1.00" color="1,0,0">
        <walk from="924607337#4" busStop="924607337#4" speed="1.5"/>
        <stop busStop="924607337#4" duration="3000"/>
        <walk from="924607337#4" to="615456193#0" speed="1.5"/>
    </person>
    <person id="person_26" depart="570" departLane="random" departSpeed="1.00" color="1,0,0">
        <walk from="924607337#4" busStop="924607337#4" speed="1.5"/>
        <stop busStop="924607337#4" duration="3000"/>
        <walk from="924607337#4" to="615456193#0" speed="1.5"/>
    </person>
    <!-- 13 -->
    <!-- 3 rider 615456195 (+15 seconds) to 923261416 or 575729552#1 -->
    <person id="person_27" depart="795" departLane="random" departSpeed="1.00" color="0,1,0">
        <walk from="615456195" busStop="615456195" speed="1.5"/>
        <ride line="jeepney_0" busStop="615456195" to="923261416"/>
        <walk edges="923261416" speed="1.5"/>
     </person>
     <person id="person_28" depart="795" departLane="random" departSpeed="1.00" color="0,1,0">
        <walk from="615456195" busStop="615456195" speed="1.5"/>
        <ride line="jeepney_0" busStop="615456195" to="575729552#1"/>
        <walk edges="575729552#1" speed="1.5"/>
     </person>
     <person id="person_29" depart="795" departLane="random" departSpeed="1.00" color="0,1,0">
        <walk from="615456195" busStop="615456195" speed="1.5"/>
        <ride line="jeepney_0" busStop="615456195" to="575729552#1"/>
        <walk edges="575729552#1" speed="1.5"/>
     </person>
    <!-- 3 rider 615456195 (+40 seconds)  -->
    <person id="person_30" depart="835" departLane="random" departSpeed="1.00" color="0,1,0">
        <walk from="615456195" busStop="615456195" speed="1.5"/>
        <ride line="jeepney_0" busStop="615456195" to="575729552#1"/>
        <walk edges="575729552#1" speed="1.5"/>
     </person>
     <person id="person_30" depart="835" departLane="random" departSpeed="1.00" color="0,1,0">
        <walk from="615456195" busStop="615456195" speed="1.5"/>
        <ride line="jeepney_0" busStop="615456195" to="923261416"/>
        <walk edges="923261416" speed="1.5"/>
     </person>
     <person id="person_30" depart="835" departLane="random" departSpeed="1.00" color="0,1,0">
        <walk from="615456195" busStop="615456195" speed="1.5"/>
        <ride line="jeepney_0" busStop="615456195" to="575729552#1"/>
        <walk edges="575729552#1" speed="1.5"/>
     </person>
    <!-- 1 stander  -->
    <person id="person_31" depart="835" departLane="random" departSpeed="1.00" color="1,0,1">
        <walk from="615456195" busStop="615456195" speed="1.5"/>
        <stop busStop="615456195" duration="3000"/>
    </person> 
    <!-- 14 -->
    <!-- 1 walker 615456195 to 615456193#0 -->
    <person id="person_32" depart="840" departLane="random" departSpeed="1.00" color="1,0,0">
        <walk from="615456195" busStop="615456195" speed="1.5"/>
        <stop busStop="615456195" duration="3000"/>
        <walk from="615456195" to="615456193#0" speed="1.5"/>
    </person>
    <!-- 1 walker 615456195 to 615456194 -->
    <person id="person_33" depart="840" departLane="random" departSpeed="1.00" color="1,0,0">
        <walk from="615456195" busStop="615456195" speed="1.5"/>
        <stop busStop="615456195" duration="3000"/>
        <walk from="615456195" to="615456194" speed="1.5"/>
    </person>
    <!-- 18 -->
    <!-- 3 stander 368461882#1 -->
    <person id="person_34" depart="1080" departLane="random" departSpeed="1.00" color="1,0,1">
        <walk from="368461882#1" busStop="368461882#1" speed="1.5"/>
        <stop busStop="368461882#1" duration="3000"/>
    </person> 
    <person id="person_35" depart="1080" departLane="random" departSpeed="1.00" color="1,0,1">
        <walk from="368461882#1" busStop="368461882#1" speed="1.5"/>
        <stop busStop="368461882#1" duration="3000"/>
    </person> 
    <person id="person_36" depart="1080" departLane="random" departSpeed="1.00" color="1,0,1">
        <walk from="368461882#1" busStop="368461882#1" speed="1.5"/>
        <stop busStop="368461882#1" duration="3000"/>
    </person> 
    <!-- 2 walker 923261416 to 368461882#1 -->
    <person id="person_37" depart="1080" departLane="random" departSpeed="1.00" color="1,0,0">
        <walk from="923261416" busStop="923261416" speed="1.5"/>
        <stop busStop="923261416" duration="3000"/>
        <walk from="923261416" to="368461882#1" speed="1.5"/>
    </person>
    <person id="person_38" depart="1080" departLane="random" departSpeed="1.00" color="1,0,0">
        <walk from="923261416" busStop="923261416" speed="1.5"/>
        <stop busStop="923261416" duration="3000"/>
        <walk from="923261416" to="368461882#1" speed="1.5"/>
    </person>
    <!-- 19 -->
    <!-- 5 walker 923261416 to 1176045778 -->
    <person id="person_39" depart="1140" departLane="random" departSpeed="1.00" color="1,0,0">
        <walk from="923261416" busStop="923261416" speed="1.5"/>
        <stop busStop="923261416" duration="3000"/>
        <walk from="923261416" to="1176045778" speed="1.5"/>
    </person>
    <person id="person_40" depart="1140" departLane="random" departSpeed="1.00" color="1,0,0">
        <walk from="923261416" busStop="923261416" speed="1.5"/>
        <stop busStop="923261416" duration="3000"/>
        <walk from="923261416" to="1176045778" speed="1.5"/>
    </person>
    <person id="person_41" depart="1140" departLane="random" departSpeed="1.00" color="1,0,0">
        <walk from="923261416" busStop="923261416" speed="1.5"/>
        <stop busStop="923261416" duration="3000"/>
        <walk from="923261416" to="1176045778" speed="1.5"/>
    </person>
    <person id="person_42" depart="1140" departLane="random" departSpeed="1.00" color="1,0,0">
        <walk from="923261416" busStop="923261416" speed="1.5"/>
        <stop busStop="923261416" duration="3000"/>
        <walk from="923261416" to="1176045778" speed="1.5"/>
    </person>
    <person id="person_43" depart="1140" departLane="random" departSpeed="1.00" color="1,0,0">
        <walk from="923261416" busStop="923261416" speed="1.5"/>
        <stop busStop="923261416" duration="3000"/>
        <walk from="923261416" to="1176045778" speed="1.5"/>
    </person>
    <!-- 20 --> 
    <!-- 5 rider 694268909#1 to -4332734#1 or 4332731 -->
    <person id="person_44" depart="1200" departLane="random" departSpeed="1.00" color="0,1,0">
        <walk from="694268909#1" busStop="694268909#1" speed="1.5"/>
        <ride line="jeepney_0" busStop="694268909#1" to="-4332734#1"/>
        <walk edges="-4332734#1" speed="1.5"/>
     </person>
     <person id="person_45" depart="1200" departLane="random" departSpeed="1.00" color="0,1,0">
        <walk from="694268909#1" busStop="694268909#1" speed="1.5"/>
        <ride line="jeepney_0" busStop="694268909#1" to="-4332734#1"/>
        <walk edges="-4332734#1" speed="1.5"/>
     </person>
     <person id="person_46" depart="1200" departLane="random" departSpeed="1.00" color="0,1,0">
        <walk from="694268909#1" busStop="694268909#1" speed="1.5"/>
        <ride line="jeepney_0" busStop="694268909#1" to="4332731"/>
        <walk edges="4332731" speed="1.5"/>
     </person>
     <person id="person_47" depart="1200" departLane="random" departSpeed="1.00" color="0,1,0">
        <walk from="694268909#1" busStop="694268909#1" speed="1.5"/>
        <ride line="jeepney_0" busStop="694268909#1" to="4332731"/>
        <walk edges="4332731" speed="1.5"/>
     </person>
     <person id="person_48" depart="1200" departLane="random" departSpeed="1.00" color="0,1,0">
        <walk from="694268909#1" busStop="694268909#1" speed="1.5"/>
        <ride line="jeepney_0" busStop="694268909#1" to="-4332734#1"/>
        <walk edges="-4332734#1" speed="1.5"/>
     </person>
     <!-- 2 stander 694268909#1 -->
     <person id="person_49" depart="1200" departLane="random" departSpeed="1.00" color="1,0,1">
        <walk from="694268909#1" busStop="694268909#1" speed="1.5"/>
        <stop busStop="694268909#1" duration="3000"/>
    </person> 
    <person id="person_50" depart="1200" departLane="random" departSpeed="1.00" color="1,0,1">
        <walk from="694268909#1" busStop="694268909#1" speed="1.5"/>
        <stop busStop="694268909#1" duration="3000"/>
    </person> 
    <!-- 21 --> 
    <!-- 4 walker 1176045778 to -29254795#0 -->
    <person id="person_51" depart="1260" departLane="random" departSpeed="1.00" color="1,0,0">
        <walk from="1176045778" busStop="1176045778" speed="1.5"/>
        <stop busStop="1176045778" duration="3000"/>
        <walk from="1176045778" to="-29254795#0" speed="1.5"/>
    </person>
    <person id="person_52" depart="1260" departLane="random" departSpeed="1.00" color="1,0,0">
        <walk from="1176045778" busStop="1176045778" speed="1.5"/>
        <stop busStop="1176045778" duration="3000"/>
        <walk from="1176045778" to="-29254795#0" speed="1.5"/>
    </person>
    <person id="person_53" depart="1260" departLane="random" departSpeed="1.00" color="1,0,0">
        <walk from="1176045778" busStop="1176045778" speed="1.5"/>
        <stop busStop="1176045778" duration="3000"/>
        <walk from="1176045778" to="-29254795#0" speed="1.5"/>
    </person>
    <person id="person_54" depart="1260" departLane="random" departSpeed="1.00" color="1,0,0">
        <walk from="1176045778" busStop="1176045778" speed="1.5"/>
        <stop busStop="1176045778" duration="3000"/>
        <walk from="1176045778" to="-29254795#0" speed="1.5"/>
    </person>
    <!-- 2 stander 82694445#0 -->
    <person id="person_55" depart="1260" departLane="random" departSpeed="1.00" color="1,0,1">
        <walk from="82694445#0" busStop="82694445#0" speed="1.5"/>
        <stop busStop="82694445#0" duration="3000"/>
    </person> 
    <person id="person_56" depart="1260" departLane="random" departSpeed="1.00" color="1,0,1">
        <walk from="82694445#0" busStop="82694445#0" speed="1.5"/>
        <stop busStop="82694445#0" duration="3000"/>
    </person> 
    <!-- 6 walker 82694445#1 to 694268909#1 -->
    <person id="person_57" depart="1290" departLane="random" departSpeed="1.00" color="1,0,0">
        <walk from="82694445#1" busStop="82694445#1" speed="1.5"/>
        <stop busStop="82694445#1" duration="3000"/>
        <walk from="82694445#1" to="694268909#1" speed="1.5"/>
    </person>
    <person id="person_58" depart="1290" departLane="random" departSpeed="1.00" color="1,0,0">
        <walk from="82694445#1" busStop="82694445#1" speed="1.5"/>
        <stop busStop="82694445#1" duration="3000"/>
        <walk from="82694445#1" to="694268909#1" speed="1.5"/>
    </person>
    <person id="person_59" depart="1290" departLane="random" departSpeed="1.00" color="1,0,0">
        <walk from="82694445#1" busStop="82694445#1" speed="1.5"/>
        <stop busStop="82694445#1" duration="3000"/>
        <walk from="82694445#1" to="694268909#1" speed="1.5"/>
    </person>
    <person id="person_60" depart="1290" departLane="random" departSpeed="1.00" color="1,0,0">
        <walk from="82694445#1" busStop="82694445#1" speed="1.5"/>
        <stop busStop="82694445#1" duration="3000"/>
        <walk from="82694445#1" to="694268909#1" speed="1.5"/>
    </person>
    <person id="person_61" depart="1290" departLane="random" departSpeed="1.00" color="1,0,0">
        <walk from="82694445#1" busStop="82694445#1" speed="1.5"/>
        <stop busStop="82694445#1" duration="3000"/>
        <walk from="82694445#1" to="694268909#1" speed="1.5"/>
    </person>
    <person id="person_62" depart="1290" departLane="random" departSpeed="1.00" color="1,0,0">
        <walk from="82694445#1" busStop="82694445#1" speed="1.5"/>
        <stop busStop="82694445#1" duration="3000"/>
        <walk from="82694445#1" to="694268909#1" speed="1.5"/>
    </person>
    <!-- 1 rider 1176045777 to -4332734#1  -->
    <person id="person_63" depart="1300" departLane="random" departSpeed="1.00" color="0,1,0">
        <walk from="1176045777" busStop="1176045777" speed="1.5"/>
        <ride line="jeepney_0" busStop="1176045777" to="-4332734#1"/>
        <walk edges="-4332734#1" speed="1.5"/>
     </person>
    <!-- 3 walker 1176045777 to 694268909#1 -->
    <person id="person_64" depart="1300" departLane="random" departSpeed="1.00" color="1,0,0">
        <walk from="1176045777" busStop="1176045777" speed="1.5"/>
        <stop busStop="1176045777" duration="3000"/>
        <walk from="1176045777" to="694268909#1" speed="1.5"/>
    </person>
    <person id="person_65" depart="1300" departLane="random" departSpeed="1.00" color="1,0,0">
        <walk from="1176045777" busStop="1176045777" speed="1.5"/>
        <stop busStop="1176045777" duration="3000"/>
        <walk from="1176045777" to="694268909#1" speed="1.5"/>
    </person>
    <person id="person_66" depart="1300" departLane="random" departSpeed="1.00" color="1,0,0">
        <walk from="1176045777" busStop="1176045777" speed="1.5"/>
        <stop busStop="1176045777" duration="3000"/>
        <walk from="1176045777" to="694268909#1" speed="1.5"/>
    </person>
    <!-- 24 -->
    <!-- 3 walker 82694458#0 to 694268909#1  -->
    <person id="person_66" depart="1440" departLane="random" departSpeed="1.00" color="1,0,0">
        <walk from="82694458#0" busStop="82694458#0" speed="1.5"/>
        <stop busStop="82694458#0" duration="3000"/>
        <walk from="82694458#0" to="694268909#1" speed="1.5"/>
    </person>
    <person id="person_67" depart="1440" departLane="random" departSpeed="1.00" color="1,0,0">
        <walk from="82694458#0" busStop="82694458#0" speed="1.5"/>
        <stop busStop="82694458#0" duration="3000"/>
        <walk from="82694458#0" to="694268909#1" speed="1.5"/>
    </person>
    <person id="person_68" depart="1440" departLane="random" departSpeed="1.00" color="1,0,0">
        <walk from="82694458#0" busStop="82694458#0" speed="1.5"/>
        <stop busStop="82694458#0" duration="3000"/>
        <walk from="82694458#0" to="694268909#1" speed="1.5"/>
    </person>
    <!-- 1 rider 82694458#0 to -4332734#1 -->
    <person id="person_69" depart="1450" departLane="random" departSpeed="1.00" color="0,1,0">
        <walk from=" 82694458#0" busStop="82694458#0" speed="1.5"/>
        <ride line="jeepney_0" busStop="82694458#0" to="-4332734#1"/>
        <walk edges="-4332734#1" speed="1.5"/>
     </person>
    <!-- 27 -->
    <!-- 4 stander 575729552#1  -->
    <person id="person_70" depart="1620" departLane="random" departSpeed="1.00" color="1,0,1">
        <walk from="575729552#1" busStop="575729552#1" speed="1.5"/>
        <stop busStop="575729552#1" duration="3000"/>
    </person> 
    <person id="person_71" depart="1620" departLane="random" departSpeed="1.00" color="1,0,1">
        <walk from="575729552#1" busStop="575729552#1" speed="1.5"/>
        <stop busStop="575729552#1" duration="3000"/>
    </person> 
    <person id="person_72" depart="1620" departLane="random" departSpeed="1.00" color="1,0,1">
        <walk from="575729552#1" busStop="575729552#1" speed="1.5"/>
        <stop busStop="575729552#1" duration="3000"/>
    </person> 
    <person id="person_73" depart="1620" departLane="random" departSpeed="1.00" color="1,0,1">
        <walk from="575729552#1" busStop="575729552#1" speed="1.5"/>
        <stop busStop="575729552#1" duration="3000"/>
    </person> 
    <!-- 575729552#1 1 rider to -4332734#1 -->
    <person id="person_74" depart="1620" departLane="random" departSpeed="1.00" color="0,1,0">
        <walk from="575729552#1" busStop="575729552#1" speed="1.5"/>
        <ride line="jeepney_0" busStop="575729552#1" to="-4332734#1"/>
        <walk edges="-4332734#1" speed="1.5"/>
     </person>
    <!-- 4 walker 4086429 to 575729552#1 -->
    <person id="person_75" depart="1640" departLane="random" departSpeed="1.00" color="1,0,0">
        <walk from="4086429" busStop="4086429" speed="1.5"/>
        <stop busStop="4086429" duration="3000"/>
        <walk from="4086429" to="575729552#1" speed="1.5"/>
    </person>
    <person id="person_76" depart="1640" departLane="random" departSpeed="1.00" color="1,0,0">
        <walk from="4086429" busStop="4086429" speed="1.5"/>
        <stop busStop="4086429" duration="3000"/>
        <walk from="4086429" to="575729552#1" speed="1.5"/>
    </person>
    <person id="person_77" depart="1640" departLane="random" departSpeed="1.00" color="1,0,0">
        <walk from="4086429" busStop="4086429" speed="1.5"/>
        <stop busStop="4086429" duration="3000"/>
        <walk from="4086429" to="575729552#1" speed="1.5"/>
    </person>
    <person id="person_78" depart="1640" departLane="random" departSpeed="1.00" color="1,0,0">
        <walk from="4086429" busStop="4086429" speed="1.5"/>
        <stop busStop="4086429" duration="3000"/>
        <walk from="4086429" to="575729552#1" speed="1.5"/>
    </person>
    <!-- 28 -->
    <!-- 1 stander -575729108#2 -->
    <person id="person_79" depart="1650" departLane="random" departSpeed="1.00" color="1,0,1">
        <walk from="-575729108#2" busStop="-575729108#2" speed="1.5"/>
        <stop busStop="-575729108#2" duration="3000"/>
    </person> 
    <!-- 3 stander -940627086 -->
    <person id="person_80" depart="1650" departLane="random" departSpeed="1.00" color="1,0,1">
        <walk from="-940627086" busStop="-940627086" speed="1.5"/>
        <stop busStop="-940627086" duration="3000"/>
    </person> 
    <person id="person_81" depart="1650" departLane="random" departSpeed="1.00" color="1,0,1">
        <walk from="-940627086" busStop="-940627086" speed="1.5"/>
        <stop busStop="-940627086" duration="3000"/>
    </person> 
    <person id="person_82" depart="1650" departLane="random" departSpeed="1.00" color="1,0,1">
        <walk from="-940627086" busStop="-940627086" speed="1.5"/>
        <stop busStop="-940627086" duration="3000"/>
    </person> 
    <!-- 1 rider -940627086 to -48630242#2 -->
    <person id="person_83" depart="1660" departLane="random" departSpeed="1.00" color="0,1,0">
        <walk from="-940627086" busStop="-940627086" speed="1.5"/>
        <ride line="jeepney_0" busStop="-940627086" to="-48630242#2"/>
        <walk edges="-48630242#2" speed="1.5"/>
     </person>
    <!-- 29 +40-->
    <!-- 1 walker -4332734#1 to -24248441#1 -->
    <person id="person_84" depart="1780" departLane="random" departSpeed="1.00" color="1,0,0">
        <walk from="-4332734#1" busStop="-4332734#1" speed="1.5"/>
        <stop busStop="-4332734#1" duration="3000"/>
        <walk from="-4332734#1" to="-24248441#1" speed="1.5"/>
    </person>
    <!-- 30 --> 
    <!-- 1 stander -48630242#3 -->
    <person id="person_85" depart="1800" departLane="random" departSpeed="1.00" color="1,0,1">
        <walk from="-48630242#3" busStop="-48630242#3" speed="1.5"/>
        <stop busStop="-48630242#3" duration="3000"/>
    </person>
    <!-- 30 +30s -->
    <!-- 1 rider -48630242#2 to -4588647#5 -->
    <person id="person_86" depart="1830" departLane="random" departSpeed="1.00" color="0,1,0">
        <walk from="-48630242#2" busStop="-48630242#2" speed="1.5"/>
        <ride line="jeepney_0" busStop="-48630242#2" to="-4588647#5"/>
        <walk edges="-4588647#5" speed="1.5"/>
     </person>
    <!-- 33 +20s -->
    <!-- 706706674#0 1 rider to 136822582 -->
    <person id="person_87" depart="2000" departLane="random" departSpeed="1.00" color="0,1,0">
        <walk from="706706674#0" busStop="706706674#0" speed="1.5"/>
        <ride line="jeepney_0" busStop="706706674#0" to="136822582"/>
        <walk edges="136822582" speed="1.5"/>
     </person>
    <!-- 35 -->
    <!-- 2 walker 820063579#0 to 107396682#0 -->
    <person id="person_88" depart="2100" departLane="random" departSpeed="1.00" color="1,0,0">
        <walk from="820063579#0" busStop="820063579#0" speed="1.5"/>
        <stop busStop="820063579#0" duration="3000"/>
        <walk from="820063579#0" to="107396682#0" speed="1.5"/>
    </person>
    <person id="person_89" depart="2100" departLane="random" departSpeed="1.00" color="1,0,0">
        <walk from="820063579#0" busStop="820063579#0" speed="1.5"/>
        <stop busStop="820063579#0" duration="3000"/>
        <walk from="820063579#0" to="107396682#0" speed="1.5"/>
    </person>
    <!-- 2 walker 820063579#1 to -1193896447 -->
    <person id="person_89" depart="2110" departLane="random" departSpeed="1.00" color="1,0,0">
        <walk from="820063579#1" busStop="820063579#1" speed="1.5"/>
        <stop busStop="820063579#1" duration="3000"/>
        <walk from="820063579#1" to="-1193896447" speed="1.5"/>
    </person>
    <person id="person_90" depart="2110" departLane="random" departSpeed="1.00" color="1,0,0">
        <walk from="820063579#1" busStop="820063579#1" speed="1.5"/>
        <stop busStop="820063579#1" duration="3000"/>
        <walk from="820063579#1" to="-1193896447" speed="1.5"/>
    </person>
    <!-- 35 + 66s -->
    <!-- 1 stander 107396681#7 -->
    <person id="person_91" depart="2166" departLane="random" departSpeed="1.00" color="1,0,1">
        <walk from="107396681#7" busStop="107396681#7" speed="1.5"/>
        <stop busStop="107396681#7" duration="3000"/>
    </person>
    <!-- 37 + 60s -->