<?xml version='1.0' encoding='utf-8'?>
<routes>



    
    <person id="person_1" depart="0" departLane="random" departSpeed="1.00" color="1,0,0">
        <walk from="303412427#4" busStop="303412427#4" speed="1.5" />
        <stop busStop="303412427#4" duration="5000" />
    </person>
    <person id="person_2" depart="0" departLane="random" departSpeed="1.00" color="1,0,0">
        <walk from="303412427#4" busStop="303412427#4" speed="1.5" />
        <stop busStop="303412427#4" duration="5000" />
    </person>
    <person id="person_3" depart="0" departLane="random" departSpeed="1.00" color="1,0,0">
        <walk from="303412427#4" busStop="303412427#4" speed="1.5" />
        <stop busStop="303412427#4" duration="5000" />
    </person>
    <person id="person_4" depart="0" departLane="random" departSpeed="1.00" color="1,0,0">
        <walk from="303412427#4" busStop="303412427#4" speed="1.5" />
        <stop busStop="303412427#4" duration="5000" />
    </person>
    <person id="person_5" depart="0" departLane="random" departSpeed="1.00" color="1,0,0">
        <walk from="303412427#5" busStop="303412427#5" speed="1.5" />
        <stop busStop="303412427#5" duration="5000" />
    </person>
    <person id="person_6" depart="0" departLane="random" departSpeed="1.00" color="1,0,0">
        <walk from="303412427#4" busStop="303412427#4" speed="1.5" />
        <stop busStop="303412427#4" duration="5000" />
      
    </person>
    <person id="person_7" depart="0" departLane="random" departSpeed="1.00" color="1,0,0">
        <walk from="303412427#4" busStop="303412427#4" speed="1.5" />
        <stop busStop="303412427#4" duration="5000" />
       
    </person>
    <person id="person_8" depart="0" departLane="random" departSpeed="1.00" color="1,0,0">
        <walk from="303412427#7" busStop="303412427#7" speed="1.5" />
        <stop busStop="303412427#7" duration="5000" />
       
    </person>
    <person id="person_9" depart="0" departLane="random" departSpeed="1.00" color="1,0,1">
        <walk from="303412427#7" busStop="303412427#7" speed="1.5" />
        <stop busStop="303412427#7" duration="5000" />
    </person> 
    <person id="person_10" depart="0" departLane="random" departSpeed="1.00" color="1,0,1">
        <walk from="303412427#7" busStop="303412427#7" speed="1.5" />
        <stop busStop="303412427#7" duration="5000" />
    </person> 
    <person id="person_11" depart="0" departLane="random" departSpeed="1.00" color="1,0,1">
        <walk from="303412427#7" busStop="303412427#7" speed="1.5" />
        <stop busStop="303412427#7" duration="5000" />
    </person> 
    <person id="person_12" depart="0" departLane="random" departSpeed="1.00" color="1,0,1">
        <walk from="303412427#7" busStop="303412427#7" speed="1.5" />
        <stop busStop="303412427#7" duration="5000" />
    </person> 
    <person id="person_13" depart="0" departLane="random" departSpeed="1.00" color="1,0,0">
        <walk from="303412427#7" busStop="303412427#7" speed="1.5" />
        <stop busStop="303412427#7" duration="5000" />
       
    </person>

    
    <person id="person_14" depart="0" departLane="random" departSpeed="1.00" color="0,1,0">
        <walk from="303412427#9" busStop="303412427#9" speed="1.5" />
        <ride from="303412427#9" to="924607337#4" lines="jeepney_0" />
        <walk edges="924607337#4" speed="1.5" />
     </person>
    <person id="person_15" depart="0" departLane="random" departSpeed="1.00" color="1,0,0">
        <walk from="303412427#9" busStop="303412427#9" speed="1.5" />
        <stop busStop="303412427#9" duration="5000" />
       
    </person>
     <person id="person_16" depart="0" departLane="random" departSpeed="1.00" color="0,1,0">
        <walk from="303412427#11" busStop="303412427#11" speed="1.5" />
        <ride from="303412427#11" to="615456195" lines="jeepney_0" />
        <walk edges="615456195" speed="1.5" />
     </person>
     <person id="person_17" depart="0" departLane="random" departSpeed="1.00" color="0,1,0">
        <walk from="303412427#11" busStop="303412427#11" speed="1.5" />
        <ride from="303412427#11" to="615456195" lines="jeepney_0" />
        <walk edges="615456195" speed="1.5" />
     </person>
     <person id="person_18" depart="0" departLane="random" departSpeed="1.00" color="0,1,0">
        <walk from="303412427#11" busStop="303412427#11" speed="1.5" />
        <ride from="303412427#11" to="615456195" lines="jeepney_0" />
        <walk edges="615456195" speed="1.5" />
     </person>
     <person id="person_19" depart="0" departLane="random" departSpeed="1.00" color="0,1,0">
        <walk from="303412427#11" busStop="303412427#11" speed="1.5" />
        <ride from="303412427#11" to="615456195" lines="jeepney_0" />
        <walk edges="615456195" speed="1.5" />
     </person>
     <person id="person_20" depart="0" departLane="random" departSpeed="1.00" color="0,1,0">
        <walk from="303412427#11" busStop="303412427#11" speed="1.5" />
        <ride from="303412427#11" to="615456195" lines="jeepney_0" />
        <walk edges="615456195" speed="1.5" />
     </person>
     <person id="person_21" depart="0" departLane="random" departSpeed="1.00" color="0,1,0">
        <walk from="303412427#11" busStop="303412427#11" speed="1.5" />
        <ride from="303412427#11" to="615456195" lines="jeepney_0" />
        <walk edges="615456195" speed="1.5" />
     </person>

     
     <person id="person_22" depart="0" departLane="random" departSpeed="1.00" color="1,0,0">
        <walk from="303412427#17" busStop="303412427#17" speed="1.5" />
        <stop busStop="303412427#17" duration="5000" />
       
    </person>
    <person id="person_23" depart="0" departLane="random" departSpeed="1.00" color="1,0,0">
        <walk from="303412427#17" busStop="303412427#17" speed="1.5" />
        <stop busStop="303412427#17" duration="5000" />
       
    </person>
    <person id="person_24" depart="0" departLane="random" departSpeed="1.00" color="1,0,0">
        <walk from="303412427#17" busStop="303412427#17" speed="1.5" />
        <stop busStop="303412427#17" duration="5000" />
       
    </person>
    <person id="person_25" depart="0" departLane="random" departSpeed="1.00" color="1,0,0">
        <walk from="303412427#17" busStop="303412427#17" speed="1.5" />
        <stop busStop="303412427#17" duration="5000" />
       
    </person>
    <person id="person_26" depart="0" departLane="random" departSpeed="1.00" color="1,0,0">
        <walk from="303412427#17" busStop="303412427#17" speed="1.5" />
        <stop busStop="303412427#17" duration="5000" />
        
    </person>
    
    
    <person id="person_27" depart="0" departLane="random" departSpeed="1.00" color="1,0,1">
        <walk from="303412427#17" busStop="303412427#17" speed="1.5" />
        <stop busStop="303412427#17" duration="5000" />
    </person> 
    <person id="person_28" depart="0" departLane="random" departSpeed="1.00" color="1,0,1">
        <walk from="303412427#17" busStop="303412427#17" speed="1.5" />
        <stop busStop="303412427#17" duration="5000" />
    </person> 
    <person id="person_29" depart="0" departLane="random" departSpeed="1.00" color="1,0,1">
        <walk from="303412427#17" busStop="303412427#17" speed="1.5" />
        <stop busStop="303412427#17" duration="5000" />
    </person> 
    <person id="person_30" depart="0" departLane="random" departSpeed="1.00" color="1,0,1">
        <walk from="303412427#17" busStop="303412427#17" speed="1.5" />
        <stop busStop="303412427#17" duration="5000" />
    </person> 
    <person id="person_31" depart="0" departLane="random" departSpeed="1.00" color="1,0,1">
        <walk from="303412427#17" busStop="303412427#17" speed="1.5" />
        <stop busStop="303412427#17" duration="5000" />
    </person> 
    <person id="person_32" depart="0" departLane="random" departSpeed="1.00" color="1,0,1">
        <walk from="303412427#17" busStop="303412427#17" speed="1.5" />
        <stop busStop="303412427#17" duration="5000" />
    </person> 
    <person id="person_33" depart="0" departLane="random" departSpeed="1.00" color="1,0,1">
        <walk from="303412427#17" busStop="303412427#17" speed="1.5" />
        <stop busStop="303412427#17" duration="5000" />
    </person> 
    <person id="person_34" depart="0" departLane="random" departSpeed="1.00" color="1,0,1">
        <walk from="303412427#17" busStop="303412427#17" speed="1.5" />
        <stop busStop="303412427#17" duration="5000" />
    </person> 
    <person id="person_35" depart="0" departLane="random" departSpeed="1.00" color="1,0,1">
        <walk from="303412427#17" busStop="303412427#17" speed="1.5" />
        <stop busStop="303412427#17" duration="5000" />
    </person> 

    
    <person id="person_36" depart="0" departLane="random" departSpeed="1.00" color="1,0,1">
        <walk from="615456195" busStop="615456195" speed="1.5" />
        <stop busStop="615456195" duration="5000" />
    </person> 
    <person id="person_37" depart="0" departLane="random" departSpeed="1.00" color="1,0,1">
        <walk from="615456195" busStop="615456195" speed="1.5" />
        <stop busStop="615456195" duration="5000" />
    </person> 
    <person id="person_38" depart="0" departLane="random" departSpeed="1.00" color="1,0,1">
        <walk from="615456195" busStop="615456195" speed="1.5" />
        <stop busStop="615456195" duration="5000" />
    </person> 
    <person id="person_39" depart="0" departLane="random" departSpeed="1.00" color="1,0,1">
        <walk from="615456195" busStop="615456195" speed="1.5" />
        <stop busStop="615456195" duration="5000" />
    </person> 
    <person id="person_40" depart="0" departLane="random" departSpeed="1.00" color="1,0,1">
        <walk from="615456195" busStop="615456195" speed="1.5" />
        <stop busStop="615456195" duration="5000" />
    </person> 
    <person id="person_41" depart="0" departLane="random" departSpeed="1.00" color="1,0,1">
        <walk from="615456195" busStop="615456195" speed="1.5" />
        <stop busStop="615456195" duration="5000" />
    </person> 
    <person id="person_42" depart="0" departLane="random" departSpeed="1.00" color="1,0,1">
        <walk from="615456195" busStop="615456195" speed="1.5" />
        <stop busStop="615456195" duration="5000" />
    </person> 
    <person id="person_43" depart="0" departLane="random" departSpeed="1.00" color="1,0,1">
        <walk from="615456195" busStop="615456195" speed="1.5" />
        <stop busStop="615456195" duration="5000" />
    </person> 
    <person id="person_44" depart="0" departLane="random" departSpeed="1.00" color="1,0,1">
        <walk from="615456195" busStop="615456195" speed="1.5" />
        <stop busStop="615456195" duration="5000" />
    </person> 
    <person id="person_45" depart="0" departLane="random" departSpeed="1.00" color="1,0,1">
        <walk from="615456195" busStop="615456195" speed="1.5" />
        <stop busStop="615456195" duration="5000" />
    </person> 
    <person id="person_46" depart="0" departLane="random" departSpeed="1.00" color="0,1,0">
        <walk from="615456195" busStop="615456195" speed="1.5" />
        <ride from="615456195" to="923261416" lines="jeepney_0" />
        <walk edges="923261416" speed="1.5" />
     </person>
     <person id="person_47" depart="0" departLane="random" departSpeed="1.00" color="0,1,0">
        <walk from="615456195" busStop="615456195" speed="1.5" />
        <ride from="615456195" to="923261416" lines="jeepney_0" />
        <walk edges="923261416" speed="1.5" />
     </person>
     <person id="person_48" depart="0" departLane="random" departSpeed="1.00" color="0,1,0">
        <walk from="615456195" busStop="615456195" speed="1.5" />
        <ride from="615456195" to="923261416" lines="jeepney_0" />
        <walk edges="923261416" speed="1.5" />
     </person>
     <person id="person_49" depart="0" departLane="random" departSpeed="1.00" color="0,1,0">
        <walk from="615456195" busStop="615456195" speed="1.5" />
        <ride from="615456195" to="923261416" lines="jeepney_0" />
        <walk edges="923261416" speed="1.5" />
     </person>
     <person id="person_50" depart="0" departLane="random" departSpeed="1.00" color="0,1,0">
        <walk from="615456195" busStop="615456195" speed="1.5" />
        <ride from="615456195" to="923261416" lines="jeepney_0" />
        <walk edges="923261416" speed="1.5" />
     </person>

    
    <person id="person_51" depart="0" departLane="random" departSpeed="1.00" color="1,0,1">
        <walk from="615456195" busStop="615456195" speed="1.5" />
        <stop busStop="615456195" duration="5000" />
    </person> 
    <person id="person_52" depart="0" departLane="random" departSpeed="1.00" color="1,0,1">
        <walk from="615456195" busStop="615456195" speed="1.5" />
        <stop busStop="615456195" duration="5000" />
    </person> 
    <person id="person_53" depart="0" departLane="random" departSpeed="1.00" color="1,0,1">
        <walk from="615456195" busStop="615456195" speed="1.5" />
        <stop busStop="615456195" duration="5000" />
    </person> 
    <person id="person_54" depart="0" departLane="random" departSpeed="1.00" color="1,0,1">
        <walk from="615456195" busStop="615456195" speed="1.5" />
        <stop busStop="615456195" duration="5000" />
    </person> 
    <person id="person_55" depart="0" departLane="random" departSpeed="1.00" color="1,0,1">
        <walk from="615456195" busStop="615456195" speed="1.5" />
        <stop busStop="615456195" duration="5000" />
    </person> 
    <person id="person_56" depart="0" departLane="random" departSpeed="1.00" color="1,0,1">
        <walk from="615456195" busStop="615456195" speed="1.5" />
        <stop busStop="615456195" duration="5000" />
    </person> 
    <person id="person_57" depart="0" departLane="random" departSpeed="1.00" color="1,0,1">
        <walk from="615456195" busStop="615456195" speed="1.5" />
        <stop busStop="615456195" duration="5000" />
    </person> 
    <person id="person_58" depart="0" departLane="random" departSpeed="1.00" color="1,0,1">
        <walk from="615456195" busStop="615456195" speed="1.5" />
        <stop busStop="615456195" duration="5000" />
    </person> 
    <person id="person_59" depart="0" departLane="random" departSpeed="1.00" color="1,0,1">
        <walk from="615456195" busStop="615456195" speed="1.5" />
        <stop busStop="615456195" duration="5000" />
    </person> 
    <person id="person_60" depart="0" departLane="random" departSpeed="1.00" color="1,0,1">
        <walk from="615456195" busStop="615456195" speed="1.5" />
        <stop busStop="615456195" duration="5000" />
    </person> 
    <person id="person_61" depart="0" departLane="random" departSpeed="1.00" color="1,0,0">
        <walk from="615456195" busStop="615456195" speed="1.5" />
        <stop busStop="615456195" duration="5000" />
        
    </person>
    <person id="person_62" depart="0" departLane="random" departSpeed="1.00" color="1,0,0">
        <walk from="615456195" busStop="615456195" speed="1.5" />
        <stop busStop="615456195" duration="5000" />
        
    </person>
    <person id="person_63" depart="0" departLane="random" departSpeed="1.00" color="1,0,0">
        <walk from="615456195" busStop="615456195" speed="1.5" />
        <stop busStop="615456195" duration="5000" />
       
    </person>
    <person id="person_64" depart="0" departLane="random" departSpeed="1.00" color="1,0,0">
        <walk from="615456195" busStop="615456195" speed="1.5" />
        <stop busStop="615456195" duration="5000" />
     
    </person>
    <person id="person_65" depart="0" departLane="random" departSpeed="1.00" color="1,0,0">
        <walk from="615456195" busStop="615456195" speed="1.5" />
        <stop busStop="615456195" duration="5000" />
    
    </person>

     
    <person id="person_66" depart="0" departLane="random" departSpeed="1.00" color="1,0,0">
        <walk from="615456193#0" busStop="615456193#0" speed="1.5" />
        <stop busStop="615456193#0" duration="5000" />
       
    </person>
    <person id="person_67" depart="0" departLane="random" departSpeed="1.00" color="1,0,0">
        <walk from="615456193#0" busStop="615456193#0" speed="1.5" />
        <stop busStop="615456193#0" duration="5000" />
       
    </person>
    <person id="person_68" depart="0" departLane="random" departSpeed="1.00" color="1,0,0">
        <walk from="615456193#0" busStop="615456193#0" speed="1.5" />
        <stop busStop="615456193#0" duration="5000" />
     
    </person>

    
    <person id="person_69" depart="0" departLane="random" departSpeed="1.00" color="1,0,1">
        <walk from="615456193#2" busStop="615456193#2" speed="1.5" />
        <stop busStop="615456193#2" duration="5000" />
    </person>
    <person id="person_70" depart="0" departLane="random" departSpeed="1.00" color="1,0,1">
        <walk from="615456193#2" busStop="615456193#2" speed="1.5" />
        <stop busStop="615456193#2" duration="5000" />
    </person>
    
    
    <person id="person_71" depart="0" departLane="random" departSpeed="1.00" color="1,0,1">
        <walk from="615478344#0" busStop="615478344#0" speed="1.5" />
        <stop busStop="615478344#0" duration="5000" />
    </person>
    <person id="person_72" depart="0" departLane="random" departSpeed="1.00" color="1,0,1">
        <walk from="615478344#0" busStop="615478344#0" speed="1.5" />
        <stop busStop="615478344#0" duration="5000" />
    </person>

    
    <person id="person_73" depart="0" departLane="random" departSpeed="1.00" color="1,0,1">
        <walk from="923261416" busStop="923261416" speed="1.5" />
        <stop busStop="923261416" duration="5000" />
    </person>
    <person id="person_74" depart="0" departLane="random" departSpeed="1.00" color="1,0,1">
        <walk from="923261416" busStop="923261416" speed="1.5" />
        <stop busStop="923261416" duration="5000" />
    </person>
    <person id="person_75" depart="0" departLane="random" departSpeed="1.00" color="1,0,1">
        <walk from="923261416" busStop="923261416" speed="1.5" />
        <stop busStop="923261416" duration="5000" />
    </person>
    <person id="person_76" depart="0" departLane="random" departSpeed="1.00" color="1,0,1">
        <walk from="923261416" busStop="923261416" speed="1.5" />
        <stop busStop="923261416" duration="5000" />
    </person>
    <person id="person_77" depart="0" departLane="random" departSpeed="1.00" color="1,0,1">
        <walk from="923261416" busStop="923261416" speed="1.5" />
        <stop busStop="923261416" duration="5000" />
    </person>
    <person id="person_78" depart="0" departLane="random" departSpeed="1.00" color="1,0,1">
        <walk from="923261416" busStop="923261416" speed="1.5" />
        <stop busStop="923261416" duration="5000" />
    </person>
    <person id="person_79" depart="0" departLane="random" departSpeed="1.00" color="1,0,1">
        <walk from="923261416" busStop="923261416" speed="1.5" />
        <stop busStop="923261416" duration="5000" />
    </person>
    <person id="person_80" depart="0" departLane="random" departSpeed="1.00" color="1,0,1">
        <walk from="923261416" busStop="923261416" speed="1.5" />
        <stop busStop="923261416" duration="5000" />
    </person>
    <person id="person_81" depart="0" departLane="random" departSpeed="1.00" color="1,0,1">
        <walk from="923261416" busStop="923261416" speed="1.5" />
        <stop busStop="923261416" duration="5000" />
    </person>
    <person id="person_82" depart="0" departLane="random" departSpeed="1.00" color="0,1,0">
        <walk from="119883577#8" busStop="119883577#8" speed="1.5" />
        <ride from="119883577#8" to="-187486758#1" lines="jeepney_0" />
        <walk edges="-187486758#1" speed="1.5" />
     </person>
     <person id="person_83" depart="0" departLane="random" departSpeed="1.00" color="0,1,0">
        <walk from="923261416" busStop="923261416" speed="1.5" />
        <ride from="923261416" to="1176045777" lines="jeepney_0" />
        <walk edges="1176045777" speed="1.5" />
     </person>
    <person id="person_84" depart="0" departLane="random" departSpeed="1.00" color="1,0,1">
        <walk from="694268909#0" busStop="694268909#0" speed="1.5" />
        <stop busStop="694268909#0" duration="5000" />
    </person>
    <person id="person_85" depart="0" departLane="random" departSpeed="1.00" color="1,0,1">
        <walk from="694268909#0" busStop="694268909#0" speed="1.5" />
        <stop busStop="694268909#0" duration="5000" />
    </person>
    <person id="person_86" depart="0" departLane="random" departSpeed="1.00" color="1,0,1">
        <walk from="694268909#0" busStop="694268909#0" speed="1.5" />
        <stop busStop="694268909#0" duration="5000" />
    </person>
    <person id="person_87" depart="0" departLane="random" departSpeed="1.00" color="1,0,1">
        <walk from="694268909#0" busStop="694268909#0" speed="1.5" />
        <stop busStop="694268909#0" duration="5000" />
    </person>
    <person id="person_88" depart="0" departLane="random" departSpeed="1.00" color="1,0,1">
        <walk from="694268909#0" busStop="694268909#0" speed="1.5" />
        <stop busStop="694268909#0" duration="5000" />
    </person>
    <person id="person_89" depart="0" departLane="random" departSpeed="1.00" color="0,1,0">
        <walk from="694268909#0" busStop="694268909#0" speed="1.5" />
        <ride from="694268909#0" to="923261416" lines="jeepney_0" />
        <walk edges="923261416" speed="1.5" />
     </person>
     <person id="person_90" depart="0" departLane="random" departSpeed="1.00" color="0,1,0">
        <walk from="923261416" busStop="923261416" speed="1.5" />
        <ride from="923261416" to="694268909#0" lines="jeepney_0" />
        <walk edges="694268909#0" speed="1.5" />
     </person>
     <person id="person_100" depart="0" departLane="random" departSpeed="1.00" color="0,1,0">
        <walk from="923261416" busStop="923261416" speed="1.5" />
        <ride from="923261416" to="694268909#0" lines="jeepney_0" />
        <walk edges="694268909#0" speed="1.5" />
     </person>
     <person id="person_101" depart="0" departLane="random" departSpeed="1.00" color="0,1,0">
        <walk from="923261416" busStop="923261416" speed="1.5" />
        <ride from="923261416" to="694268909#0" lines="jeepney_0" />
        <walk edges="694268909#0" speed="1.5" />
     </person>
     <person id="person_102" depart="0" departLane="random" departSpeed="1.00" color="0,1,0">
        <walk from="923261416" busStop="923261416" speed="1.5" />
        <ride from="923261416" to="694268909#0" lines="jeepney_0" />
        <walk edges="694268909#0" speed="1.5" />
     </person>
     <person id="person_103" depart="0" departLane="random" departSpeed="1.00" color="0,1,0">
        <walk from="923261416" busStop="923261416" speed="1.5" />
        <ride from="923261416" to="694268909#0" lines="jeepney_0" />
        <walk edges="694268909#0" speed="1.5" />
     </person>
    <person id="person_104" depart="0" departLane="random" departSpeed="1.00" color="1,0,1">
        <walk from="694268909#0" busStop="694268909#0" speed="1.5" />
        <stop busStop="694268909#0" duration="5000" />
    </person>
    <person id="person_105" depart="0" departLane="random" departSpeed="1.00" color="1,0,1">
        <walk from="694268909#0" busStop="694268909#0" speed="1.5" />
        <stop busStop="694268909#0" duration="5000" />
    </person>
    <person id="person_106" depart="0" departLane="random" departSpeed="1.00" color="1,0,1">
        <walk from="694268909#0" busStop="694268909#0" speed="1.5" />
        <stop busStop="694268909#0" duration="5000" />
    </person>
    <person id="person_107" depart="0" departLane="random" departSpeed="1.00" color="1,0,1">
        <walk from="694268909#0" busStop="694268909#0" speed="1.5" />
        <stop busStop="694268909#0" duration="5000" />
    </person>
    <person id="person_108" depart="0" departLane="random" departSpeed="1.00" color="1,0,1">
        <walk from="694268909#0" busStop="694268909#0" speed="1.5" />
        <stop busStop="694268909#0" duration="5000" />
    </person>
    <person id="person_109" depart="0" departLane="random" departSpeed="1.00" color="0,1,0">
        <walk from="694268909#0" busStop="694268909#0" speed="1.5" />
        <ride from="694268909#0" to="-133342495#1" lines="jeepney_0" />
        <walk edges="-133342495#1" speed="1.5" />
     </person>
     <person id="person_110" depart="0" departLane="random" departSpeed="1.00" color="1,0,1">
        <walk from="694268909#0" busStop="694268909#0" speed="1.5" />
        <stop busStop="694268909#0" duration="5000" />
    </person>
    <person id="person_111" depart="0" departLane="random" departSpeed="1.00" color="1,0,1">
        <walk from="694268909#0" busStop="694268909#0" speed="1.5" />
        <stop busStop="694268909#0" duration="5000" />
    </person>
    <person id="person_112" depart="0" departLane="random" departSpeed="1.00" color="0,1,0">
        <walk from="694268909#0" busStop="694268909#0" speed="1.5" />
        <ride from="694268909#0" to="-133342495#1" lines="jeepney_0" />
        <walk edges="-133342495#1" speed="1.5" />
     </person>

     
     
    <person id="person_113" depart="0" departLane="random" departSpeed="1.00" color="1,0,1">
        <walk from="694268909#0" busStop="694268909#0" speed="1.5" />
        <stop busStop="694268909#0" duration="5000" />
    </person>
    <person id="person_114" depart="0" departLane="random" departSpeed="1.00" color="1,0,1">
        <walk from="694268909#0" busStop="694268909#0" speed="1.5" />
        <stop busStop="694268909#0" duration="5000" />
    </person>
    <person id="person_115" depart="0" departLane="random" departSpeed="1.00" color="1,0,1">
        <walk from="694268909#0" busStop="694268909#0" speed="1.5" />
        <stop busStop="694268909#0" duration="5000" />
    </person>
    <person id="person_116" depart="0" departLane="random" departSpeed="1.00" color="1,0,1">
        <walk from="694268909#0" busStop="694268909#0" speed="1.5" />
        <stop busStop="694268909#0" duration="5000" />
    </person>
    <person id="person_117" depart="0" departLane="random" departSpeed="1.00" color="1,0,1">
        <walk from="694268909#0" busStop="694268909#0" speed="1.5" />
        <stop busStop="694268909#0" duration="5000" />
    </person>
    <person id="person_118" depart="0" departLane="random" departSpeed="1.00" color="1,0,1">
        <walk from="694268909#0" busStop="694268909#0" speed="1.5" />
        <stop busStop="694268909#0" duration="5000" />
    </person>
    <person id="person_119" depart="0" departLane="random" departSpeed="1.00" color="0,1,0">
        <walk from="694268909#0" busStop="694268909#0" speed="1.5" />
        <ride from="694268909#0" to="-133342495#1" lines="jeepney_0" />
        <walk edges="-133342495#1" speed="1.5" />
     </person>
     
     <person id="person_120" depart="0" departLane="random" departSpeed="1.00" color="1,0,0">
        <walk from="694268909#1" busStop="694268909#1" speed="1.5" />
        <stop busStop="694268909#1" duration="5000" />
        <walk from="694268909#1" to="923261416" speed="1.5" />
    </person>
    <person id="person_121" depart="0" departLane="random" departSpeed="1.00" color="1,0,0">
        <walk from="694268909#1" busStop="694268909#1" speed="1.5" />
        <stop busStop="694268909#1" duration="5000" />
        <walk from="694268909#1" to="923261416" speed="1.5" />
    </person>
    <person id="person_122" depart="0" departLane="random" departSpeed="1.00" color="1,0,0">
        <walk from="694268909#1" busStop="694268909#1" speed="1.5" />
        <stop busStop="694268909#1" duration="5000" />
        <walk from="694268909#1" to="923261416" speed="1.5" />
    </person>
    <person id="person_123" depart="0" departLane="random" departSpeed="1.00" color="1,0,0">
        <walk from="694268909#1" busStop="694268909#1" speed="1.5" />
        <stop busStop="694268909#1" duration="5000" />
        <walk from="694268909#1" to="923261416" speed="1.5" />
    </person>
    <person id="person_124" depart="0" departLane="random" departSpeed="1.00" color="1,0,0">
        <walk from="694268909#1" busStop="694268909#1" speed="1.5" />
        <stop busStop="694268909#1" duration="5000" />
        <walk from="694268909#1" to="923261416" speed="1.5" />
    </person>
    <person id="person_125" depart="0" departLane="random" departSpeed="1.00" color="1,0,0">
        <walk from="694268909#1" busStop="694268909#1" speed="1.5" />
        <stop busStop="694268909#1" duration="5000" />
        <walk from="694268909#1" to="923261416" speed="1.5" />
    </person>
    <person id="person_126" depart="0" departLane="random" departSpeed="1.00" color="1,0,0">
        <walk from="694268909#1" busStop="694268909#1" speed="1.5" />
        <stop busStop="694268909#1" duration="5000" />
        <walk from="694268909#1" to="923261416" speed="1.5" />
    </person>
    <person id="person_127" depart="0" departLane="random" departSpeed="1.00" color="1,0,0">
        <walk from="694268909#1" busStop="694268909#1" speed="1.5" />
        <stop busStop="694268909#1" duration="5000" />
        <walk from="694268909#1" to="923261416" speed="1.5" />
    </person>
    <person id="person_128" depart="0" departLane="random" departSpeed="1.00" color="1,0,0">
        <walk from="694268909#1" busStop="694268909#1" speed="1.5" />
        <stop busStop="694268909#1" duration="5000" />
        <walk from="694268909#1" to="923261416" speed="1.5" />
    </person>
    <person id="person_129" depart="0" departLane="random" departSpeed="1.00" color="0,1,0">
        <walk from="694268909#1" busStop="694268909#1" speed="1.5" />
        <ride from="694268909#1" to="-133342495#1" lines="jeepney_0" />
        <walk edges="-133342495#1" speed="1.5" />
     </person>