<?xml version='1.0' encoding='UTF-8'?>
<routes>
  <trip id="jeepney_188" type="traditional_jeepney" depart="0" from="704746731#0" to="-29377703#2"/>
  <trip id="jeepney_111" type="traditional_jeepney" depart="2" from="1112806233-AddedOnRampEdge" to="-29377703#2"/>
  <trip id="modernjeepney_20" type="modern_jeepney" depart="5" from="-4588647#0" to="16174062#0"/>
  <trip id="jeepney_112" type="traditional_jeepney" depart="6" from="-4588647#0" to="16174062#0"/>
  <trip id="modernjeepney_2" type="modern_jeepney" depart="7" from="368461882#0" to="16174062#0"/>
  <trip id="jeepney_29" type="traditional_jeepney" depart="9" from="-923261416" to="-29377703#2"/>
  <trip id="jeepney_37" type="traditional_jeepney" depart="10" from="368461882#0" to="16174062#0"/>
  <trip id="jeepney_64" type="traditional_jeepney" depart="12" from="368461882#0" to="16174062#0"/>
  <trip id="jeepney_0" type="traditional_jeepney" depart="14" from="368461882#0" to="16174062#0"/>
  <trip id="jeepney_30" type="traditional_jeepney" depart="14" from="-923261416" to="-29377703#2"/>
  <trip id="jeepney_93" type="traditional_jeepney" depart="16" from="-4588647#0" to="16174062#0"/>
  <trip id="modernjeepney_24" type="modern_jeepney" depart="16" from="704746731#0" to="-29377703#2"/>
  <trip id="jeepney_78" type="traditional_jeepney" depart="17" from="368461882#0" to="16174062#0"/>
  <trip id="modernjeepney_17" type="modern_jeepney" depart="18" from="1112806233-AddedOnRampEdge" to="-29377703#2"/>
  <trip id="jeepney_47" type="traditional_jeepney" depart="21" from="368461882#0" to="16174062#0"/>
  <trip id="jeepney_127" type="traditional_jeepney" depart="21" from="-4588647#0" to="16174062#0"/>
  <trip id="jeepney_28" type="traditional_jeepney" depart="23" from="-923261416" to="-29377703#2"/>
  <trip id="jeepney_142" type="traditional_jeepney" depart="38" from="-4588647#0" to="16174062#0"/>
  <trip id="jeepney_36" type="traditional_jeepney" depart="40" from="368461882#0" to="16174062#0"/>
  <trip id="jeepney_94" type="traditional_jeepney" depart="40" from="-4588647#0" to="16174062#0"/>
  <trip id="jeepney_185" type="traditional_jeepney" depart="41" from="704746731#0" to="-29377703#2"/>
  <trip id="jeepney_145" type="traditional_jeepney" depart="44" from="1112806233-AddedOnRampEdge" to="-29377703#2"/>
  <trip id="jeepney_5" type="traditional_jeepney" depart="46" from="368461882#0" to="16174062#0"/>
  <trip id="jeepney_53" type="traditional_jeepney" depart="52" from="-923261416" to="-29377703#2"/>
  <trip id="jeepney_7" type="traditional_jeepney" depart="53" from="368461882#0" to="16174062#0"/>
  <trip id="jeepney_205" type="traditional_jeepney" depart="54" from="704746731#0" to="-29377703#2"/>
  <trip id="jeepney_50" type="traditional_jeepney" depart="61" from="-923261416" to="-29377703#2"/>
  <trip id="jeepney_48" type="traditional_jeepney" depart="64" from="368461882#0" to="16174062#0"/>
  <trip id="jeepney_74" type="traditional_jeepney" depart="64" from="368461882#0" to="16174062#0"/>
  <trip id="jeepney_144" type="traditional_jeepney" depart="67" from="1112806233-AddedOnRampEdge" to="-29377703#2"/>
  <trip id="jeepney_82" type="traditional_jeepney" depart="71" from="368461882#0" to="16174062#0"/>
  <trip id="jeepney_143" type="traditional_jeepney" depart="71" from="-4588647#0" to="16174062#0"/>
  <trip id="jeepney_45" type="traditional_jeepney" depart="72" from="-923261416" to="-29377703#2"/>
  <trip id="jeepney_72" type="traditional_jeepney" depart="72" from="368461882#0" to="16174062#0"/>
  <trip id="jeepney_32" type="traditional_jeepney" depart="73" from="368461882#0" to="16174062#0"/>
  <trip id="jeepney_13" type="traditional_jeepney" depart="76" from="-923261416" to="-29377703#2"/>
  <trip id="jeepney_175" type="traditional_jeepney" depart="84" from="119883577#7" to="16174062#0"/>
  <trip id="jeepney_38" type="traditional_jeepney" depart="92" from="-923261416" to="-29377703#2"/>
  <trip id="modernjeepney_15" type="modern_jeepney" depart="92" from="1112806233-AddedOnRampEdge" to="-29377703#2"/>
  <trip id="jeepney_109" type="traditional_jeepney" depart="98" from="-4588647#0" to="16174062#0"/>
  <trip id="jeepney_76" type="traditional_jeepney" depart="102" from="368461882#0" to="16174062#0"/>
  <trip id="jeepney_68" type="traditional_jeepney" depart="103" from="368461882#0" to="16174062#0"/>
  <trip id="jeepney_90" type="traditional_jeepney" depart="103" from="-4588647#0" to="16174062#0"/>
  <trip id="jeepney_126" type="traditional_jeepney" depart="103" from="1112806233-AddedOnRampEdge" to="-29377703#2"/>
  <trip id="modernjeepney_29" type="modern_jeepney" depart="103" from="119883577#7" to="16174062#0"/>
  <trip id="modernjeepney_30" type="modern_jeepney" depart="103" from="704746731#0" to="-29377703#2"/>
  <trip id="jeepney_84" type="traditional_jeepney" depart="106" from="-923261416" to="-29377703#2"/>
  <trip id="jeepney_104" type="traditional_jeepney" depart="106" from="-4588647#0" to="16174062#0"/>
  <trip id="jeepney_2" type="traditional_jeepney" depart="112" from="368461882#0" to="16174062#0"/>
  <trip id="jeepney_59" type="traditional_jeepney" depart="119" from="368461882#0" to="16174062#0"/>
  <trip id="jeepney_130" type="traditional_jeepney" depart="121" from="1112806233-AddedOnRampEdge" to="-29377703#2"/>
  <trip id="modernjeepney_19" type="modern_jeepney" depart="125" from="1112806233-AddedOnRampEdge" to="-29377703#2"/>
  <trip id="jeepney_160" type="traditional_jeepney" depart="125" from="119883577#7" to="16174062#0"/>
  <trip id="jeepney_99" type="traditional_jeepney" depart="126" from="1112806233-AddedOnRampEdge" to="-29377703#2"/>
  <trip id="modernjeepney_18" type="modern_jeepney" depart="127" from="-4588647#0" to="16174062#0"/>
  <trip id="jeepney_203" type="traditional_jeepney" depart="130" from="119883577#7" to="16174062#0"/>
  <trip id="jeepney_166" type="traditional_jeepney" depart="133" from="119883577#7" to="16174062#0"/>
  <trip id="modernjeepney_0" type="modern_jeepney" depart="136" from="368461882#0" to="16174062#0"/>
  <trip id="jeepney_77" type="traditional_jeepney" depart="137" from="-923261416" to="-29377703#2"/>
  <trip id="jeepney_140" type="traditional_jeepney" depart="141" from="-4588647#0" to="16174062#0"/>
  <trip id="modernjeepney_28" type="modern_jeepney" depart="143" from="119883577#7" to="16174062#0"/>
  <trip id="jeepney_206" type="traditional_jeepney" depart="146" from="119883577#7" to="16174062#0"/>
  <trip id="jeepney_39" type="traditional_jeepney" depart="150" from="368461882#0" to="16174062#0"/>
  <trip id="jeepney_174" type="traditional_jeepney" depart="153" from="119883577#7" to="16174062#0"/>
  <trip id="jeepney_193" type="traditional_jeepney" depart="154" from="704746731#0" to="-29377703#2"/>
  <trip id="jeepney_171" type="traditional_jeepney" depart="166" from="704746731#0" to="-29377703#2"/>
  <trip id="jeepney_69" type="traditional_jeepney" depart="167" from="-923261416" to="-29377703#2"/>
  <trip id="jeepney_184" type="traditional_jeepney" depart="169" from="119883577#7" to="16174062#0"/>
  <trip id="jeepney_75" type="traditional_jeepney" depart="171" from="368461882#0" to="16174062#0"/>
  <trip id="jeepney_3" type="traditional_jeepney" depart="173" from="368461882#0" to="16174062#0"/>
  <trip id="jeepney_122" type="traditional_jeepney" depart="185" from="-4588647#0" to="16174062#0"/>
  <trip id="jeepney_25" type="traditional_jeepney" depart="191" from="-923261416" to="-29377703#2"/>
  <trip id="jeepney_158" type="traditional_jeepney" depart="205" from="704746731#0" to="-29377703#2"/>
  <trip id="jeepney_4" type="traditional_jeepney" depart="207" from="-923261416" to="-29377703#2"/>
  <trip id="jeepney_102" type="traditional_jeepney" depart="215" from="1112806233-AddedOnRampEdge" to="-29377703#2"/>
  <trip id="jeepney_187" type="traditional_jeepney" depart="217" from="704746731#0" to="-29377703#2"/>
  <trip id="jeepney_159" type="traditional_jeepney" depart="224" from="704746731#0" to="-29377703#2"/>
  <trip id="jeepney_151" type="traditional_jeepney" depart="225" from="1112806233-AddedOnRampEdge" to="-29377703#2"/>
  <trip id="jeepney_161" type="traditional_jeepney" depart="227" from="119883577#7" to="16174062#0"/>
  <trip id="jeepney_107" type="traditional_jeepney" depart="233" from="1112806233-AddedOnRampEdge" to="-29377703#2"/>
  <trip id="jeepney_123" type="traditional_jeepney" depart="237" from="-4588647#0" to="16174062#0"/>
  <trip id="jeepney_60" type="traditional_jeepney" depart="242" from="-923261416" to="-29377703#2"/>
  <trip id="jeepney_70" type="traditional_jeepney" depart="242" from="-923261416" to="-29377703#2"/>
  <trip id="modernjeepney_7" type="modern_jeepney" depart="248" from="368461882#0" to="16174062#0"/>
  <trip id="jeepney_200" type="traditional_jeepney" depart="250" from="119883577#7" to="16174062#0"/>
  <trip id="jeepney_71" type="traditional_jeepney" depart="255" from="-923261416" to="-29377703#2"/>
  <trip id="jeepney_27" type="traditional_jeepney" depart="259" from="368461882#0" to="16174062#0"/>
  <trip id="jeepney_6" type="traditional_jeepney" depart="260" from="-923261416" to="-29377703#2"/>
  <trip id="jeepney_100" type="traditional_jeepney" depart="266" from="-4588647#0" to="16174062#0"/>
  <trip id="jeepney_110" type="traditional_jeepney" depart="267" from="-4588647#0" to="16174062#0"/>
  <trip id="jeepney_162" type="traditional_jeepney" depart="268" from="704746731#0" to="-29377703#2"/>
  <trip id="jeepney_40" type="traditional_jeepney" depart="271" from="368461882#0" to="16174062#0"/>
  <trip id="modernjeepney_10" type="modern_jeepney" depart="275" from="-923261416" to="-29377703#2"/>
  <trip id="jeepney_196" type="traditional_jeepney" depart="279" from="119883577#7" to="16174062#0"/>
  <trip id="jeepney_173" type="traditional_jeepney" depart="282" from="119883577#7" to="16174062#0"/>
  <trip id="jeepney_81" type="traditional_jeepney" depart="291" from="368461882#0" to="16174062#0"/>
  <trip id="jeepney_179" type="traditional_jeepney" depart="293" from="119883577#7" to="16174062#0"/>
  <trip id="jeepney_150" type="traditional_jeepney" depart="299" from="1112806233-AddedOnRampEdge" to="-29377703#2"/>
  <trip id="jeepney_124" type="traditional_jeepney" depart="304" from="-4588647#0" to="16174062#0"/>
  <trip id="jeepney_165" type="traditional_jeepney" depart="307" from="704746731#0" to="-29377703#2"/>
  <trip id="jeepney_33" type="traditional_jeepney" depart="312" from="-923261416" to="-29377703#2"/>
  <trip id="jeepney_55" type="traditional_jeepney" depart="313" from="-923261416" to="-29377703#2"/>
  <trip id="jeepney_169" type="traditional_jeepney" depart="317" from="704746731#0" to="-29377703#2"/>
  <trip id="jeepney_198" type="traditional_jeepney" depart="323" from="704746731#0" to="-29377703#2"/>
  <trip id="jeepney_95" type="traditional_jeepney" depart="326" from="-4588647#0" to="16174062#0"/>
  <trip id="modernjeepney_5" type="modern_jeepney" depart="328" from="-923261416" to="-29377703#2"/>
  <trip id="jeepney_87" type="traditional_jeepney" depart="334" from="-4588647#0" to="16174062#0"/>
  <trip id="jeepney_58" type="traditional_jeepney" depart="335" from="368461882#0" to="16174062#0"/>
  <trip id="jeepney_113" type="traditional_jeepney" depart="337" from="1112806233-AddedOnRampEdge" to="-29377703#2"/>
  <trip id="jeepney_197" type="traditional_jeepney" depart="339" from="119883577#7" to="16174062#0"/>
  <trip id="jeepney_86" type="traditional_jeepney" depart="352" from="1112806233-AddedOnRampEdge" to="-29377703#2"/>
  <trip id="jeepney_31" type="traditional_jeepney" depart="356" from="368461882#0" to="16174062#0"/>
  <trip id="jeepney_181" type="traditional_jeepney" depart="357" from="704746731#0" to="-29377703#2"/>
  <trip id="jeepney_156" type="traditional_jeepney" depart="358" from="704746731#0" to="-29377703#2"/>
  <trip id="jeepney_149" type="traditional_jeepney" depart="359" from="-4588647#0" to="16174062#0"/>
  <trip id="jeepney_103" type="traditional_jeepney" depart="360" from="-4588647#0" to="16174062#0"/>
  <trip id="jeepney_12" type="traditional_jeepney" depart="361" from="368461882#0" to="16174062#0"/>
  <trip id="modernjeepney_22" type="modern_jeepney" depart="362" from="1112806233-AddedOnRampEdge" to="-29377703#2"/>
  <trip id="jeepney_177" type="traditional_jeepney" depart="363" from="119883577#7" to="16174062#0"/>
  <trip id="jeepney_186" type="traditional_jeepney" depart="363" from="119883577#7" to="16174062#0"/>
  <trip id="jeepney_182" type="traditional_jeepney" depart="365" from="704746731#0" to="-29377703#2"/>
  <trip id="jeepney_56" type="traditional_jeepney" depart="370" from="368461882#0" to="16174062#0"/>
  <trip id="jeepney_121" type="traditional_jeepney" depart="375" from="-4588647#0" to="16174062#0"/>
  <trip id="jeepney_170" type="traditional_jeepney" depart="376" from="704746731#0" to="-29377703#2"/>
  <trip id="jeepney_115" type="traditional_jeepney" depart="377" from="1112806233-AddedOnRampEdge" to="-29377703#2"/>
  <trip id="jeepney_119" type="traditional_jeepney" depart="380" from="1112806233-AddedOnRampEdge" to="-29377703#2"/>
  <trip id="jeepney_88" type="traditional_jeepney" depart="391" from="1112806233-AddedOnRampEdge" to="-29377703#2"/>
  <trip id="jeepney_43" type="traditional_jeepney" depart="393" from="-923261416" to="-29377703#2"/>
  <trip id="jeepney_116" type="traditional_jeepney" depart="395" from="-4588647#0" to="16174062#0"/>
  <trip id="jeepney_192" type="traditional_jeepney" depart="402" from="704746731#0" to="-29377703#2"/>
  <trip id="jeepney_42" type="traditional_jeepney" depart="406" from="-923261416" to="-29377703#2"/>
  <trip id="jeepney_153" type="traditional_jeepney" depart="413" from="1112806233-AddedOnRampEdge" to="-29377703#2"/>
  <trip id="jeepney_189" type="traditional_jeepney" depart="417" from="704746731#0" to="-29377703#2"/>
  <trip id="jeepney_108" type="traditional_jeepney" depart="419" from="1112806233-AddedOnRampEdge" to="-29377703#2"/>
  <trip id="jeepney_66" type="traditional_jeepney" depart="422" from="-923261416" to="-29377703#2"/>
  <trip id="jeepney_96" type="traditional_jeepney" depart="422" from="-4588647#0" to="16174062#0"/>
  <trip id="jeepney_141" type="traditional_jeepney" depart="425" from="-4588647#0" to="16174062#0"/>
  <trip id="modernjeepney_14" type="modern_jeepney" depart="446" from="-4588647#0" to="16174062#0"/>
  <trip id="jeepney_133" type="traditional_jeepney" depart="449" from="1112806233-AddedOnRampEdge" to="-29377703#2"/>
  <trip id="modernjeepney_1" type="modern_jeepney" depart="451" from="-923261416" to="-29377703#2"/>
  <trip id="jeepney_62" type="traditional_jeepney" depart="456" from="368461882#0" to="16174062#0"/>
  <trip id="jeepney_154" type="traditional_jeepney" depart="456" from="119883577#7" to="16174062#0"/>
  <trip id="jeepney_44" type="traditional_jeepney" depart="457" from="-923261416" to="-29377703#2"/>
  <trip id="jeepney_191" type="traditional_jeepney" depart="458" from="704746731#0" to="-29377703#2"/>
  <trip id="modernjeepney_12" type="modern_jeepney" depart="460" from="1112806233-AddedOnRampEdge" to="-29377703#2"/>
  <trip id="modernjeepney_21" type="modern_jeepney" depart="463" from="1112806233-AddedOnRampEdge" to="-29377703#2"/>
  <trip id="jeepney_61" type="traditional_jeepney" depart="491" from="368461882#0" to="16174062#0"/>
  <trip id="modernjeepney_23" type="modern_jeepney" depart="497" from="704746731#0" to="-29377703#2"/>
  <trip id="jeepney_136" type="traditional_jeepney" depart="498" from="-4588647#0" to="16174062#0"/>
  <trip id="jeepney_85" type="traditional_jeepney" depart="508" from="1112806233-AddedOnRampEdge" to="-29377703#2"/>
  <trip id="jeepney_89" type="traditional_jeepney" depart="508" from="1112806233-AddedOnRampEdge" to="-29377703#2"/>
  <trip id="jeepney_137" type="traditional_jeepney" depart="510" from="1112806233-AddedOnRampEdge" to="-29377703#2"/>
  <trip id="jeepney_138" type="traditional_jeepney" depart="516" from="-4588647#0" to="16174062#0"/>
  <trip id="jeepney_178" type="traditional_jeepney" depart="520" from="119883577#7" to="16174062#0"/>
  <trip id="jeepney_101" type="traditional_jeepney" depart="522" from="1112806233-AddedOnRampEdge" to="-29377703#2"/>
  <trip id="jeepney_9" type="traditional_jeepney" depart="523" from="-923261416" to="-29377703#2"/>
  <trip id="jeepney_172" type="traditional_jeepney" depart="523" from="119883577#7" to="16174062#0"/>
  <trip id="modernjeepney_3" type="modern_jeepney" depart="525" from="368461882#0" to="16174062#0"/>
  <trip id="jeepney_92" type="traditional_jeepney" depart="527" from="-4588647#0" to="16174062#0"/>
  <trip id="jeepney_35" type="traditional_jeepney" depart="532" from="368461882#0" to="16174062#0"/>
  <trip id="jeepney_128" type="traditional_jeepney" depart="536" from="-4588647#0" to="16174062#0"/>
  <trip id="jeepney_168" type="traditional_jeepney" depart="549" from="119883577#7" to="16174062#0"/>
  <trip id="modernjeepney_25" type="modern_jeepney" depart="551" from="704746731#0" to="-29377703#2"/>
  <trip id="jeepney_67" type="traditional_jeepney" depart="555" from="368461882#0" to="16174062#0"/>
  <trip id="modernjeepney_16" type="modern_jeepney" depart="557" from="1112806233-AddedOnRampEdge" to="-29377703#2"/>
  <trip id="jeepney_146" type="traditional_jeepney" depart="564" from="1112806233-AddedOnRampEdge" to="-29377703#2"/>
  <trip id="jeepney_80" type="traditional_jeepney" depart="567" from="-923261416" to="-29377703#2"/>
  <trip id="jeepney_23" type="traditional_jeepney" depart="571" from="-923261416" to="-29377703#2"/>
  <trip id="jeepney_208" type="traditional_jeepney" depart="580" from="119883577#7" to="16174062#0"/>
  <trip id="jeepney_148" type="traditional_jeepney" depart="582" from="-4588647#0" to="16174062#0"/>
  <trip id="jeepney_125" type="traditional_jeepney" depart="583" from="1112806233-AddedOnRampEdge" to="-29377703#2"/>
  <trip id="modernjeepney_11" type="modern_jeepney" depart="591" from="-4588647#0" to="16174062#0"/>
  <trip id="jeepney_57" type="traditional_jeepney" depart="592" from="368461882#0" to="16174062#0"/>
  <trip id="jeepney_207" type="traditional_jeepney" depart="599" from="704746731#0" to="-29377703#2"/>
  <trip id="jeepney_98" type="traditional_jeepney" depart="602" from="-4588647#0" to="16174062#0"/>
  <trip id="modernjeepney_27" type="modern_jeepney" depart="602" from="119883577#7" to="16174062#0"/>
  <trip id="jeepney_54" type="traditional_jeepney" depart="608" from="-923261416" to="-29377703#2"/>
  <trip id="jeepney_1" type="traditional_jeepney" depart="609" from="368461882#0" to="16174062#0"/>
  <trip id="jeepney_118" type="traditional_jeepney" depart="609" from="-4588647#0" to="16174062#0"/>
  <trip id="jeepney_16" type="traditional_jeepney" depart="611" from="368461882#0" to="16174062#0"/>
  <trip id="jeepney_14" type="traditional_jeepney" depart="619" from="368461882#0" to="16174062#0"/>
  <trip id="jeepney_117" type="traditional_jeepney" depart="628" from="-4588647#0" to="16174062#0"/>
  <trip id="jeepney_10" type="traditional_jeepney" depart="629" from="-923261416" to="-29377703#2"/>
  <trip id="modernjeepney_26" type="modern_jeepney" depart="638" from="704746731#0" to="-29377703#2"/>
  <trip id="jeepney_157" type="traditional_jeepney" depart="645" from="119883577#7" to="16174062#0"/>
  <trip id="jeepney_155" type="traditional_jeepney" depart="647" from="704746731#0" to="-29377703#2"/>
  <trip id="jeepney_202" type="traditional_jeepney" depart="648" from="119883577#7" to="16174062#0"/>
  <trip id="jeepney_195" type="traditional_jeepney" depart="649" from="704746731#0" to="-29377703#2"/>
  <trip id="jeepney_139" type="traditional_jeepney" depart="651" from="1112806233-AddedOnRampEdge" to="-29377703#2"/>
  <trip id="jeepney_190" type="traditional_jeepney" depart="656" from="704746731#0" to="-29377703#2"/>
  <trip id="jeepney_129" type="traditional_jeepney" depart="659" from="1112806233-AddedOnRampEdge" to="-29377703#2"/>
  <trip id="jeepney_49" type="traditional_jeepney" depart="662" from="-923261416" to="-29377703#2"/>
  <trip id="jeepney_8" type="traditional_jeepney" depart="666" from="-923261416" to="-29377703#2"/>
  <trip id="jeepney_183" type="traditional_jeepney" depart="667" from="704746731#0" to="-29377703#2"/>
  <trip id="jeepney_180" type="traditional_jeepney" depart="668" from="704746731#0" to="-29377703#2"/>
  <trip id="jeepney_134" type="traditional_jeepney" depart="672" from="-4588647#0" to="16174062#0"/>
  <trip id="jeepney_167" type="traditional_jeepney" depart="680" from="119883577#7" to="16174062#0"/>
  <trip id="jeepney_41" type="traditional_jeepney" depart="684" from="-923261416" to="-29377703#2"/>
  <trip id="jeepney_132" type="traditional_jeepney" depart="684" from="-4588647#0" to="16174062#0"/>
  <trip id="jeepney_106" type="traditional_jeepney" depart="687" from="-4588647#0" to="16174062#0"/>
  <trip id="jeepney_20" type="traditional_jeepney" depart="688" from="368461882#0" to="16174062#0"/>
  <trip id="jeepney_147" type="traditional_jeepney" depart="692" from="1112806233-AddedOnRampEdge" to="-29377703#2"/>
  <trip id="jeepney_17" type="traditional_jeepney" depart="702" from="368461882#0" to="16174062#0"/>
  <trip id="jeepney_51" type="traditional_jeepney" depart="702" from="368461882#0" to="16174062#0"/>
  <trip id="jeepney_176" type="traditional_jeepney" depart="705" from="704746731#0" to="-29377703#2"/>
  <trip id="jeepney_21" type="traditional_jeepney" depart="712" from="368461882#0" to="16174062#0"/>
  <trip id="jeepney_131" type="traditional_jeepney" depart="714" from="1112806233-AddedOnRampEdge" to="-29377703#2"/>
  <trip id="jeepney_135" type="traditional_jeepney" depart="714" from="-4588647#0" to="16174062#0"/>
  <trip id="jeepney_15" type="traditional_jeepney" depart="717" from="368461882#0" to="16174062#0"/>
  <trip id="jeepney_83" type="traditional_jeepney" depart="717" from="368461882#0" to="16174062#0"/>
  <trip id="jeepney_65" type="traditional_jeepney" depart="718" from="-923261416" to="-29377703#2"/>
  <trip id="jeepney_79" type="traditional_jeepney" depart="727" from="-923261416" to="-29377703#2"/>
  <trip id="jeepney_152" type="traditional_jeepney" depart="730" from="1112806233-AddedOnRampEdge" to="-29377703#2"/>
  <trip id="jeepney_24" type="traditional_jeepney" depart="733" from="368461882#0" to="16174062#0"/>
  <trip id="jeepney_120" type="traditional_jeepney" depart="733" from="1112806233-AddedOnRampEdge" to="-29377703#2"/>
  <trip id="jeepney_11" type="traditional_jeepney" depart="734" from="-923261416" to="-29377703#2"/>
  <trip id="modernjeepney_8" type="modern_jeepney" depart="739" from="-923261416" to="-29377703#2"/>
  <trip id="jeepney_194" type="traditional_jeepney" depart="767" from="119883577#7" to="16174062#0"/>
  <trip id="modernjeepney_13" type="modern_jeepney" depart="772" from="1112806233-AddedOnRampEdge" to="-29377703#2"/>
  <trip id="jeepney_73" type="traditional_jeepney" depart="775" from="-923261416" to="-29377703#2"/>
  <trip id="jeepney_19" type="traditional_jeepney" depart="779" from="368461882#0" to="16174062#0"/>
  <trip id="jeepney_114" type="traditional_jeepney" depart="791" from="1112806233-AddedOnRampEdge" to="-29377703#2"/>
  <trip id="jeepney_46" type="traditional_jeepney" depart="797" from="368461882#0" to="16174062#0"/>
  <trip id="jeepney_163" type="traditional_jeepney" depart="797" from="119883577#7" to="16174062#0"/>
  <trip id="jeepney_18" type="traditional_jeepney" depart="798" from="368461882#0" to="16174062#0"/>
  <trip id="modernjeepney_4" type="modern_jeepney" depart="798" from="-923261416" to="-29377703#2"/>
  <trip id="jeepney_204" type="traditional_jeepney" depart="800" from="119883577#7" to="16174062#0"/>
  <trip id="jeepney_34" type="traditional_jeepney" depart="801" from="-923261416" to="-29377703#2"/>
  <trip id="jeepney_201" type="traditional_jeepney" depart="803" from="119883577#7" to="16174062#0"/>
  <trip id="jeepney_105" type="traditional_jeepney" depart="808" from="-4588647#0" to="16174062#0"/>
  <trip id="jeepney_22" type="traditional_jeepney" depart="817" from="-923261416" to="-29377703#2"/>
  <trip id="jeepney_199" type="traditional_jeepney" depart="817" from="119883577#7" to="16174062#0"/>
  <trip id="modernjeepney_9" type="modern_jeepney" depart="819" from="368461882#0" to="16174062#0"/>
  <trip id="jeepney_26" type="traditional_jeepney" depart="823" from="368461882#0" to="16174062#0"/>
  <trip id="jeepney_52" type="traditional_jeepney" depart="830" from="368461882#0" to="16174062#0"/>
  <trip id="jeepney_164" type="traditional_jeepney" depart="830" from="119883577#7" to="16174062#0"/>
  <trip id="modernjeepney_6" type="modern_jeepney" depart="833" from="368461882#0" to="16174062#0"/>
  <trip id="jeepney_63" type="traditional_jeepney" depart="844" from="-923261416" to="-29377703#2"/>
  <trip id="jeepney_97" type="traditional_jeepney" depart="846" from="1112806233-AddedOnRampEdge" to="-29377703#2"/>
  <trip id="jeepney_91" type="traditional_jeepney" depart="847" from="1112806233-AddedOnRampEdge" to="-29377703#2"/>
</routes>
