<?xml version="1.0" ?>
<routes xmlns:xsi="http://www.w3.org/2001/XMLSchema-instance" xsi:noNamespaceSchemaLocation="http://sumo.dlr.de/xsd/routes_file.xsd">
    <vehicle id="veh_43" type="motorcycle" depart="4">
        <route edges="775437708 917450543"/>
    </vehicle>
    <vehicle id="veh_0" type="car" depart="6">
        <route edges="136822578 1174874706"/>
    </vehicle>
    <vehicle id="veh_44" type="motorcycle" depart="7">
        <route edges="136822578 1174874706"/>
    </vehicle>
    <vehicle id="veh_45" type="motorcycle" depart="9">
        <route edges="775437708 917450543"/>
    </vehicle>
    <vehicle id="veh_46" type="motorcycle" depart="9">
        <route edges="136822578 1174874706"/>
    </vehicle>
    <vehicle id="jeepney_0" type="traditional_jeepney" depart="10">
        <route edges="-4588647 -917450542 1174874706"/>
    </vehicle>
    <vehicle id="veh_1" type="car" depart="11">
        <route edges="-4588647 160192389"/>
    </vehicle>
    <vehicle id="veh_2" type="car" depart="14">
        <route edges="775437708 917450543"/>
    </vehicle>
    <vehicle id="veh_47" type="motorcycle" depart="15">
        <route edges="775437708 917450543"/>
    </vehicle>
    <vehicle id="jeepney_1" type="traditional_jeepney" depart="16">
        <route edges="-4588647 -917450542 1174874706"/>
    </vehicle>
    <vehicle id="veh_48" type="motorcycle" depart="19">
        <route edges="775437708 917450543"/>
    </vehicle>
    <vehicle id="veh_3" type="car" depart="20">
        <route edges="1112806233 4588647"/>
    </vehicle>
    <vehicle id="veh_4" type="car" depart="23">
        <route edges="136822578 1174874706"/>
    </vehicle>
    <vehicle id="veh_49" type="motorcycle" depart="23">
        <route edges="1112806233 4588647"/>
    </vehicle>
    <vehicle id="veh_50" type="motorcycle" depart="27">
        <route edges="775437708 917450543"/>
    </vehicle>
    <vehicle id="jeepney_2" type="traditional_jeepney" depart="30">
        <route edges="-4588647 -917450542 1174874706"/>
    </vehicle>
    <vehicle id="veh_51" type="motorcycle" depart="32">
        <route edges="775437708 917450543"/>
    </vehicle>
    <vehicle id="veh_5" type="car" depart="35">
        <route edges="136822578 1174874706"/>
    </vehicle>
    <vehicle id="veh_52" type="motorcycle" depart="35">
        <route edges="775437708 917450543"/>
    </vehicle>
    <vehicle id="veh_53" type="motorcycle" depart="38">
        <route edges="775437708 917450543"/>
    </vehicle>
    <vehicle id="veh_54" type="motorcycle" depart="40">
        <route edges="136822578 1174874706"/>
    </vehicle>
    <vehicle id="veh_6" type="car" depart="41">
        <route edges="136822578 1174874706"/>
    </vehicle>
    <vehicle id="veh_55" type="motorcycle" depart="44">
        <route edges="136822578 1174874706"/>
    </vehicle>
    <vehicle id="veh_56" type="motorcycle" depart="45">
        <route edges="775437708 917450543"/>
    </vehicle>
    <vehicle id="veh_7" type="car" depart="47">
        <route edges="136822578 1174874706"/>
    </vehicle>
    <vehicle id="jeepney_3" type="traditional_jeepney" depart="47">
        <route edges="-4588647 -917450542 1174874706"/>
    </vehicle>
    <vehicle id="veh_57" type="motorcycle" depart="49">
        <route edges="136822578 1174874706"/>
    </vehicle>
    <vehicle id="veh_8" type="car" depart="53">
        <route edges="136822578 1174874706"/>
    </vehicle>
    <vehicle id="veh_58" type="motorcycle" depart="54">
        <route edges="775437708 917450543"/>
    </vehicle>
    <vehicle id="veh_59" type="motorcycle" depart="55">
        <route edges="775437708 917450543"/>
    </vehicle>
    <vehicle id="veh_60" type="motorcycle" depart="58">
        <route edges="136822578 1174874706"/>
    </vehicle>
    <vehicle id="veh_142" type="bicycle" depart="59">
        <route edges="775437708 917450543"/>
    </vehicle>
    <vehicle id="veh_9" type="car" depart="63">
        <route edges="1112806233 4588647"/>
    </vehicle>
    <vehicle id="jeepney_4" type="traditional_jeepney" depart="63">
        <route edges="-4588647 -917450542 1174874706"/>
    </vehicle>
    <vehicle id="veh_61" type="motorcycle" depart="64">
        <route edges="775437708 917450543"/>
    </vehicle>
    <vehicle id="veh_62" type="motorcycle" depart="68">
        <route edges="136822578 1174874706"/>
    </vehicle>
    <vehicle id="veh_10" type="car" depart="72">
        <route edges="775437708 917450543"/>
    </vehicle>
    <vehicle id="veh_63" type="motorcycle" depart="73">
        <route edges="136822578 1174874706"/>
    </vehicle>
    <vehicle id="jeepney_5" type="traditional_jeepney" depart="73">
        <route edges="1112806233 4588647"/>
    </vehicle>
    <vehicle id="veh_64" type="motorcycle" depart="76">
        <route edges="136822578 1174874706"/>
    </vehicle>
    <vehicle id="veh_65" type="motorcycle" depart="78">
        <route edges="1112806233 4588647"/>
    </vehicle>
    <vehicle id="veh_66" type="motorcycle" depart="80">
        <route edges="1112806233 160192389"/>
    </vehicle>
    <vehicle id="veh_67" type="motorcycle" depart="82">
        <route edges="1112806233 4588647"/>
    </vehicle>
    <vehicle id="veh_11" type="car" depart="87">
        <route edges="136822578 1174874706"/>
    </vehicle>
    <vehicle id="veh_68" type="motorcycle" depart="88">
        <route edges="-4588647 -917450542 1174874706"/>
    </vehicle>
    <vehicle id="veh_119" type="truck" depart="92">
        <route edges="775437708 917450543"/>
    </vehicle>
    <vehicle id="jeepney_6" type="traditional_jeepney" depart="92">
        <route edges="1112806233 4588647"/>
    </vehicle>
    <vehicle id="veh_12" type="car" depart="93">
        <route edges="136822578 1174874706"/>
    </vehicle>
    <vehicle id="veh_13" type="car" depart="99">
        <route edges="136822578 1174874706"/>
    </vehicle>
    <vehicle id="veh_69" type="motorcycle" depart="99">
        <route edges="775437708 917450543"/>
    </vehicle>
    <vehicle id="veh_70" type="motorcycle" depart="103">
        <route edges="775437708 917450543"/>
    </vehicle>
    <vehicle id="veh_143" type="bicycle" depart="103">
        <route edges="136822578 1174874706"/>
    </vehicle>
    <vehicle id="veh_14" type="car" depart="105">
        <route edges="775437708 917450543"/>
    </vehicle>
    <vehicle id="veh_71" type="motorcycle" depart="106">
        <route edges="136822578 1174874706"/>
    </vehicle>
    <vehicle id="veh_72" type="motorcycle" depart="110">
        <route edges="775437708 917450543"/>
    </vehicle>
    <vehicle id="veh_15" type="car" depart="111">
        <route edges="775437708 917450543"/>
    </vehicle>
    <vehicle id="veh_73" type="motorcycle" depart="113">
        <route edges="775437708 917450543"/>
    </vehicle>
    <vehicle id="jeepney_7" type="traditional_jeepney" depart="113">
        <route edges="1112806233 4588647"/>
    </vehicle>
    <vehicle id="veh_16" type="car" depart="114">
        <route edges="136822578 1174874706"/>
    </vehicle>
    <vehicle id="veh_74" type="motorcycle" depart="118">
        <route edges="136822578 1174874706"/>
    </vehicle>
    <vehicle id="veh_75" type="motorcycle" depart="121">
        <route edges="775437708 917450543"/>
    </vehicle>
    <vehicle id="veh_17" type="car" depart="122">
        <route edges="775437708 917450543"/>
    </vehicle>
    <vehicle id="veh_18" type="car" depart="123">
        <route edges="775437708 917450543"/>
    </vehicle>
    <vehicle id="veh_76" type="motorcycle" depart="124">
        <route edges="775437708 917450543"/>
    </vehicle>
    <vehicle id="veh_19" type="car" depart="127">
        <route edges="775437708 917450543"/>
    </vehicle>
    <vehicle id="veh_77" type="motorcycle" depart="129">
        <route edges="775437708 917450543"/>
    </vehicle>
    <vehicle id="jeepney_8" type="traditional_jeepney" depart="130">
        <route edges="1112806233 4588647"/>
    </vehicle>
    <vehicle id="veh_78" type="motorcycle" depart="131">
        <route edges="1112806233 4588647"/>
    </vehicle>
    <vehicle id="veh_20" type="car" depart="132">
        <route edges="775437708 917450543"/>
    </vehicle>
    <vehicle id="veh_79" type="motorcycle" depart="135">
        <route edges="775437708 917450543"/>
    </vehicle>
    <vehicle id="veh_80" type="motorcycle" depart="136">
        <route edges="775437708 917450543"/>
    </vehicle>
    <vehicle id="veh_81" type="motorcycle" depart="139">
        <route edges="136822578 1174874706"/>
    </vehicle>
    <vehicle id="veh_21" type="car" depart="140">
        <route edges="775437708 917450543"/>
    </vehicle>
    <vehicle id="jeepney_9" type="traditional_jeepney" depart="141">
        <route edges="-4588647 -917450542 1174874706"/>
    </vehicle>
    <vehicle id="veh_82" type="motorcycle" depart="146">
        <route edges="775437708 917450543"/>
    </vehicle>
    <vehicle id="veh_144" type="bicycle" depart="148">
        <route edges="1112806233 4588647"/>
    </vehicle>
    <vehicle id="veh_22" type="car" depart="150">
        <route edges="775437708 917450543"/>
    </vehicle>
    <vehicle id="veh_83" type="motorcycle" depart="150">
        <route edges="136822578 1174874706"/>
    </vehicle>
    <vehicle id="veh_84" type="motorcycle" depart="156">
        <route edges="775437708 917450543"/>
    </vehicle>
    <vehicle id="jeepney_10" type="traditional_jeepney" depart="156">
        <route edges="-4588647 -917450542 1174874706"/>
    </vehicle>
    <vehicle id="veh_23" type="car" depart="158">
        <route edges="775437708 917450543"/>
    </vehicle>
    <vehicle id="veh_85" type="motorcycle" depart="159">
        <route edges="136822578 1174874706"/>
    </vehicle>
    <vehicle id="veh_24" type="car" depart="169">
        <route edges="1112806233 4588647"/>
    </vehicle>
    <vehicle id="veh_86" type="motorcycle" depart="169">
        <route edges="136822578 1174874706"/>
    </vehicle>
    <vehicle id="jeepney_11" type="traditional_jeepney" depart="170">
        <route edges="-4588647 -917450542 1174874706"/>
    </vehicle>
    <vehicle id="veh_87" type="motorcycle" depart="171">
        <route edges="775437708 917450543"/>
    </vehicle>
    <vehicle id="veh_120" type="truck" depart="172">
        <route edges="775437708 917450543"/>
    </vehicle>
    <vehicle id="veh_25" type="car" depart="174">
        <route edges="136822578 1174874706"/>
    </vehicle>
    <vehicle id="veh_88" type="motorcycle" depart="175">
        <route edges="775437708 917450543"/>
    </vehicle>
    <vehicle id="veh_26" type="car" depart="178">
        <route edges="136822578 1174874706"/>
    </vehicle>
    <vehicle id="veh_89" type="motorcycle" depart="180">
        <route edges="136822578 1174874706"/>
    </vehicle>
    <vehicle id="veh_90" type="motorcycle" depart="182">
        <route edges="775437708 917450543"/>
    </vehicle>
    <vehicle id="jeepney_12" type="traditional_jeepney" depart="184">
        <route edges="-4588647 -917450542 1174874706"/>
    </vehicle>
    <vehicle id="veh_27" type="car" depart="185">
        <route edges="136822578 1174874706"/>
    </vehicle>
    <vehicle id="veh_91" type="motorcycle" depart="189">
        <route edges="775437708 917450543"/>
    </vehicle>
    <vehicle id="veh_28" type="car" depart="192">
        <route edges="775437708 917450543"/>
    </vehicle>
    <vehicle id="veh_29" type="car" depart="197">
        <route edges="136822578 1174874706"/>
    </vehicle>
    <vehicle id="jeepney_13" type="traditional_jeepney" depart="197">
        <route edges="1112806233 4588647"/>
    </vehicle>
    <vehicle id="veh_92" type="motorcycle" depart="198">
        <route edges="775437708 917450543"/>
    </vehicle>
    <vehicle id="veh_145" type="bicycle" depart="198">
        <route edges="775437708 917450543"/>
    </vehicle>
    <vehicle id="veh_93" type="motorcycle" depart="200">
        <route edges="775437708 917450543"/>
    </vehicle>
    <vehicle id="veh_30" type="car" depart="202">
        <route edges="136822578 1174874706"/>
    </vehicle>
    <vehicle id="veh_94" type="motorcycle" depart="205">
        <route edges="775437708 917450543"/>
    </vehicle>
    <vehicle id="veh_31" type="car" depart="210">
        <route edges="1112806233 160192389"/>
    </vehicle>
    <vehicle id="veh_95" type="motorcycle" depart="211">
        <route edges="775437708 917450543"/>
    </vehicle>
    <vehicle id="jeepney_14" type="traditional_jeepney" depart="213">
        <route edges="1112806233 4588647"/>
    </vehicle>
    <vehicle id="veh_96" type="motorcycle" depart="215">
        <route edges="775437708 917450543"/>
    </vehicle>
    <vehicle id="veh_32" type="car" depart="217">
        <route edges="775437708 917450543"/>
    </vehicle>
    <vehicle id="veh_97" type="motorcycle" depart="217">
        <route edges="775437708 917450543"/>
    </vehicle>
    <vehicle id="veh_98" type="motorcycle" depart="222">
        <route edges="1112806233 4588647"/>
    </vehicle>
    <vehicle id="jeepney_15" type="traditional_jeepney" depart="224">
        <route edges="-4588647 -917450542 1174874706"/>
    </vehicle>
    <vehicle id="veh_99" type="motorcycle" depart="225">
        <route edges="136822578 1174874706"/>
    </vehicle>
    <vehicle id="veh_100" type="motorcycle" depart="227">
        <route edges="775437708 917450543"/>
    </vehicle>
    <vehicle id="veh_33" type="car" depart="228">
        <route edges="775437708 917450543"/>
    </vehicle>
    <vehicle id="veh_101" type="motorcycle" depart="228">
        <route edges="775437708 917450543"/>
    </vehicle>
    <vehicle id="veh_102" type="motorcycle" depart="229">
        <route edges="775437708 917450543"/>
    </vehicle>
    <vehicle id="veh_103" type="motorcycle" depart="231">
        <route edges="775437708 917450543"/>
    </vehicle>
    <vehicle id="veh_104" type="motorcycle" depart="235">
        <route edges="775437708 917450543"/>
    </vehicle>
    <vehicle id="veh_34" type="car" depart="236">
        <route edges="136822578 1174874706"/>
    </vehicle>
    <vehicle id="veh_105" type="motorcycle" depart="239">
        <route edges="775437708 917450543"/>
    </vehicle>
    <vehicle id="veh_106" type="motorcycle" depart="240">
        <route edges="136822578 1174874706"/>
    </vehicle>
    <vehicle id="jeepney_16" type="traditional_jeepney" depart="240">
        <route edges="-4588647 -917450542 1174874706"/>
    </vehicle>
    <vehicle id="veh_107" type="motorcycle" depart="243">
        <route edges="136822578 1174874706"/>
    </vehicle>
    <vehicle id="veh_108" type="motorcycle" depart="246">
        <route edges="136822578 1174874706"/>
    </vehicle>
    <vehicle id="veh_35" type="car" depart="247">
        <route edges="-4588647 160192389"/>
    </vehicle>
    <vehicle id="veh_109" type="motorcycle" depart="248">
        <route edges="775437708 917450543"/>
    </vehicle>
    <vehicle id="veh_110" type="motorcycle" depart="252">
        <route edges="1112806233 4588647"/>
    </vehicle>
    <vehicle id="veh_146" type="bicycle" depart="253">
        <route edges="136822578 1174874706"/>
    </vehicle>
    <vehicle id="veh_111" type="motorcycle" depart="255">
        <route edges="136822578 1174874706"/>
    </vehicle>
    <vehicle id="veh_36" type="car" depart="256">
        <route edges="775437708 917450543"/>
    </vehicle>
    <vehicle id="veh_112" type="motorcycle" depart="259">
        <route edges="136822578 1174874706"/>
    </vehicle>
    <vehicle id="veh_121" type="truck" depart="259">
        <route edges="775437708 917450543"/>
    </vehicle>
    <vehicle id="jeepney_17" type="traditional_jeepney" depart="260">
        <route edges="1112806233 4588647"/>
    </vehicle>
    <vehicle id="veh_37" type="car" depart="263">
        <route edges="775437708 917450543"/>
    </vehicle>
    <vehicle id="veh_113" type="motorcycle" depart="263">
        <route edges="775437708 917450543"/>
    </vehicle>
    <vehicle id="veh_38" type="car" depart="267">
        <route edges="136822578 1174874706"/>
    </vehicle>
    <vehicle id="veh_114" type="motorcycle" depart="268">
        <route edges="1112806233 160192389"/>
    </vehicle>
    <vehicle id="veh_115" type="motorcycle" depart="270">
        <route edges="775437708 917450543"/>
    </vehicle>
    <vehicle id="veh_116" type="motorcycle" depart="271">
        <route edges="775437708 917450543"/>
    </vehicle>
    <vehicle id="veh_117" type="motorcycle" depart="273">
        <route edges="1112806233 4588647"/>
    </vehicle>
    <vehicle id="veh_39" type="car" depart="274">
        <route edges="775437708 917450543"/>
    </vehicle>
    <vehicle id="jeepney_18" type="traditional_jeepney" depart="274">
        <route edges="-4588647 -917450542 1174874706"/>
    </vehicle>
    <vehicle id="veh_118" type="motorcycle" depart="277">
        <route edges="136822578 1174874706"/>
    </vehicle>
    <vehicle id="veh_40" type="car" depart="279">
        <route edges="775437708 917450543"/>
    </vehicle>
    <vehicle id="jeepney_19" type="traditional_jeepney" depart="287">
        <route edges="1112806233 4588647"/>
    </vehicle>
    <vehicle id="veh_41" type="car" depart="289">
        <route edges="1112806233 160192389"/>
    </vehicle>
    <vehicle id="veh_42" type="car" depart="296">
        <route edges="775437708 917450543"/>
    </vehicle>
    <vehicle id="veh_147" type="bicycle" depart="299">
        <route edges="775437708 917450543"/>
    </vehicle>
    <vehicle id="veh_195" type="motorcycle" depart="300">
        <route edges="1112806233 160192389"/>
    </vehicle>
    <vehicle id="veh_196" type="motorcycle" depart="302">
        <route edges="136822578 1174874706"/>
    </vehicle>
    <vehicle id="veh_197" type="motorcycle" depart="307">
        <route edges="1112806233 160192389"/>
    </vehicle>
    <vehicle id="veh_148" type="car" depart="308">
        <route edges="775437708 917450543"/>
    </vehicle>
    <vehicle id="veh_149" type="car" depart="313">
        <route edges="136822578 1174874706"/>
    </vehicle>
    <vehicle id="veh_198" type="motorcycle" depart="314">
        <route edges="775437708 917450543"/>
    </vehicle>
    <vehicle id="veh_150" type="car" depart="315">
        <route edges="136822578 1174874706"/>
    </vehicle>
    <vehicle id="veh_199" type="motorcycle" depart="318">
        <route edges="136822578 1174874706"/>
    </vehicle>
    <vehicle id="veh_200" type="motorcycle" depart="321">
        <route edges="775437708 917450543"/>
    </vehicle>
    <vehicle id="veh_151" type="car" depart="322">
        <route edges="1112806233 4588647"/>
    </vehicle>
    <vehicle id="jeepney_20" type="traditional_jeepney" depart="323">
        <route edges="-4588647 -917450542 1174874706"/>
    </vehicle>
    <vehicle id="veh_152" type="car" depart="328">
        <route edges="136822578 1174874706"/>
    </vehicle>
    <vehicle id="veh_201" type="motorcycle" depart="328">
        <route edges="136822578 1174874706"/>
    </vehicle>
    <vehicle id="veh_202" type="motorcycle" depart="332">
        <route edges="775437708 917450543"/>
    </vehicle>
    <vehicle id="veh_153" type="car" depart="336">
        <route edges="136822578 1174874706"/>
    </vehicle>
    <vehicle id="veh_154" type="car" depart="337">
        <route edges="775437708 917450543"/>
    </vehicle>
    <vehicle id="veh_203" type="motorcycle" depart="337">
        <route edges="775437708 917450543"/>
    </vehicle>
    <vehicle id="veh_204" type="motorcycle" depart="342">
        <route edges="136822578 1174874706"/>
    </vehicle>
    <vehicle id="veh_155" type="car" depart="345">
        <route edges="136822578 1174874706"/>
    </vehicle>
    <vehicle id="jeepney_21" type="traditional_jeepney" depart="347">
        <route edges="-4588647 -917450542 1174874706"/>
    </vehicle>
    <vehicle id="veh_205" type="motorcycle" depart="348">
        <route edges="775437708 917450543"/>
    </vehicle>
    <vehicle id="veh_156" type="car" depart="349">
        <route edges="775437708 917450543"/>
    </vehicle>
    <vehicle id="veh_206" type="motorcycle" depart="350">
        <route edges="775437708 917450543"/>
    </vehicle>
    <vehicle id="veh_157" type="car" depart="352">
        <route edges="136822578 1174874706"/>
    </vehicle>
    <vehicle id="veh_207" type="motorcycle" depart="353">
        <route edges="136822578 1174874706"/>
    </vehicle>
    <vehicle id="veh_158" type="car" depart="357">
        <route edges="136822578 1174874706"/>
    </vehicle>
    <vehicle id="veh_208" type="motorcycle" depart="357">
        <route edges="136822578 1174874706"/>
    </vehicle>
    <vehicle id="veh_209" type="motorcycle" depart="359">
        <route edges="775437708 917450543"/>
    </vehicle>
    <vehicle id="veh_159" type="car" depart="361">
        <route edges="775437708 917450543"/>
    </vehicle>
    <vehicle id="jeepney_22" type="traditional_jeepney" depart="362">
        <route edges="1112806233 4588647"/>
    </vehicle>
    <vehicle id="veh_210" type="motorcycle" depart="366">
        <route edges="775437708 917450543"/>
    </vehicle>
    <vehicle id="veh_160" type="car" depart="367">
        <route edges="136822578 1174874706"/>
    </vehicle>
    <vehicle id="veh_264" type="truck" depart="368">
        <route edges="136822578 1174874706"/>
    </vehicle>
    <vehicle id="veh_284" type="bicycle" depart="369">
        <route edges="775437708 917450543"/>
    </vehicle>
    <vehicle id="veh_211" type="motorcycle" depart="371">
        <route edges="1112806233 160192389"/>
    </vehicle>
    <vehicle id="jeepney_23" type="traditional_jeepney" depart="373">
        <route edges="1112806233 4588647"/>
    </vehicle>
    <vehicle id="veh_212" type="motorcycle" depart="376">
        <route edges="1112806233 4588647"/>
    </vehicle>
    <vehicle id="veh_161" type="car" depart="377">
        <route edges="136822578 1174874706"/>
    </vehicle>
    <vehicle id="veh_162" type="car" depart="381">
        <route edges="775437708 917450543"/>
    </vehicle>
    <vehicle id="veh_213" type="motorcycle" depart="384">
        <route edges="136822578 1174874706"/>
    </vehicle>
    <vehicle id="veh_163" type="car" depart="388">
        <route edges="775437708 917450543"/>
    </vehicle>
    <vehicle id="jeepney_24" type="traditional_jeepney" depart="390">
        <route edges="-4588647 -917450542 1174874706"/>
    </vehicle>
    <vehicle id="veh_214" type="motorcycle" depart="391">
        <route edges="775437708 917450543"/>
    </vehicle>
    <vehicle id="veh_164" type="car" depart="397">
        <route edges="136822578 1174874706"/>
    </vehicle>
    <vehicle id="veh_215" type="motorcycle" depart="397">
        <route edges="775437708 917450543"/>
    </vehicle>
    <vehicle id="veh_216" type="motorcycle" depart="400">
        <route edges="136822578 1174874706"/>
    </vehicle>
    <vehicle id="veh_165" type="car" depart="402">
        <route edges="136822578 1174874706"/>
    </vehicle>
    <vehicle id="jeepney_25" type="traditional_jeepney" depart="403">
        <route edges="-4588647 -917450542 1174874706"/>
    </vehicle>
    <vehicle id="veh_217" type="motorcycle" depart="404">
        <route edges="775437708 917450543"/>
    </vehicle>
    <vehicle id="veh_285" type="bicycle" depart="407">
        <route edges="136822578 1174874706"/>
    </vehicle>
    <vehicle id="veh_166" type="car" depart="411">
        <route edges="136822578 1174874706"/>
    </vehicle>
    <vehicle id="veh_218" type="motorcycle" depart="416">
        <route edges="1112806233 4588647"/>
    </vehicle>
    <vehicle id="veh_167" type="car" depart="418">
        <route edges="136822578 1174874706"/>
    </vehicle>
    <vehicle id="veh_219" type="motorcycle" depart="420">
        <route edges="136822578 1174874706"/>
    </vehicle>
    <vehicle id="jeepney_26" type="traditional_jeepney" depart="423">
        <route edges="1112806233 4588647"/>
    </vehicle>
    <vehicle id="veh_168" type="car" depart="424">
        <route edges="775437708 917450543"/>
    </vehicle>
    <vehicle id="veh_220" type="motorcycle" depart="424">
        <route edges="775437708 917450543"/>
    </vehicle>
    <vehicle id="veh_221" type="motorcycle" depart="426">
        <route edges="136822578 1174874706"/>
    </vehicle>
    <vehicle id="veh_222" type="motorcycle" depart="429">
        <route edges="136822578 1174874706"/>
    </vehicle>
    <vehicle id="veh_169" type="car" depart="430">
        <route edges="775437708 917450543"/>
    </vehicle>
    <vehicle id="veh_265" type="truck" depart="431">
        <route edges="775437708 917450543"/>
    </vehicle>
    <vehicle id="veh_170" type="car" depart="433">
        <route edges="136822578 1174874706"/>
    </vehicle>
    <vehicle id="veh_171" type="car" depart="437">
        <route edges="775437708 917450543"/>
    </vehicle>
    <vehicle id="veh_223" type="motorcycle" depart="437">
        <route edges="136822578 1174874706"/>
    </vehicle>
    <vehicle id="jeepney_27" type="traditional_jeepney" depart="442">
        <route edges="1112806233 4588647"/>
    </vehicle>
    <vehicle id="veh_224" type="motorcycle" depart="443">
        <route edges="775437708 917450543"/>
    </vehicle>
    <vehicle id="veh_286" type="bicycle" depart="443">
        <route edges="775437708 917450543"/>
    </vehicle>
    <vehicle id="veh_172" type="car" depart="444">
        <route edges="136822578 1174874706"/>
    </vehicle>
    <vehicle id="veh_225" type="motorcycle" depart="449">
        <route edges="136822578 1174874706"/>
    </vehicle>
    <vehicle id="veh_173" type="car" depart="450">
        <route edges="136822578 1174874706"/>
    </vehicle>
    <vehicle id="veh_174" type="car" depart="456">
        <route edges="775437708 917450543"/>
    </vehicle>
    <vehicle id="veh_226" type="motorcycle" depart="456">
        <route edges="1112806233 4588647"/>
    </vehicle>
    <vehicle id="veh_227" type="motorcycle" depart="458">
        <route edges="775437708 917450543"/>
    </vehicle>
    <vehicle id="jeepney_28" type="traditional_jeepney" depart="461">
        <route edges="1112806233 4588647"/>
    </vehicle>
    <vehicle id="veh_175" type="car" depart="462">
        <route edges="136822578 1174874706"/>
    </vehicle>
    <vehicle id="veh_228" type="motorcycle" depart="462">
        <route edges="136822578 1174874706"/>
    </vehicle>
    <vehicle id="veh_229" type="motorcycle" depart="467">
        <route edges="775437708 917450543"/>
    </vehicle>
    <vehicle id="veh_176" type="car" depart="470">
        <route edges="136822578 1174874706"/>
    </vehicle>
    <vehicle id="veh_230" type="motorcycle" depart="470">
        <route edges="136822578 1174874706"/>
    </vehicle>
    <vehicle id="jeepney_29" type="traditional_jeepney" depart="470">
        <route edges="-4588647 -917450542 1174874706"/>
    </vehicle>
    <vehicle id="veh_231" type="motorcycle" depart="474">
        <route edges="136822578 1174874706"/>
    </vehicle>
    <vehicle id="veh_232" type="motorcycle" depart="475">
        <route edges="136822578 1174874706"/>
    </vehicle>
    <vehicle id="veh_233" type="motorcycle" depart="478">
        <route edges="1112806233 4588647"/>
    </vehicle>
    <vehicle id="veh_177" type="car" depart="479">
        <route edges="775437708 917450543"/>
    </vehicle>
    <vehicle id="veh_178" type="car" depart="482">
        <route edges="775437708 917450543"/>
    </vehicle>
    <vehicle id="veh_234" type="motorcycle" depart="482">
        <route edges="775437708 917450543"/>
    </vehicle>
    <vehicle id="veh_235" type="motorcycle" depart="486">
        <route edges="775437708 917450543"/>
    </vehicle>
    <vehicle id="veh_287" type="bicycle" depart="487">
        <route edges="775437708 917450543"/>
    </vehicle>
    <vehicle id="veh_179" type="car" depart="491">
        <route edges="775437708 917450543"/>
    </vehicle>
    <vehicle id="veh_236" type="motorcycle" depart="493">
        <route edges="136822578 1174874706"/>
    </vehicle>
    <vehicle id="jeepney_30" type="traditional_jeepney" depart="493">
        <route edges="1112806233 4588647"/>
    </vehicle>
    <vehicle id="veh_237" type="motorcycle" depart="494">
        <route edges="136822578 1174874706"/>
    </vehicle>
    <vehicle id="veh_180" type="car" depart="496">
        <route edges="136822578 1174874706"/>
    </vehicle>
    <vehicle id="veh_266" type="truck" depart="496">
        <route edges="1112806233 4588647"/>
    </vehicle>
    <vehicle id="veh_238" type="motorcycle" depart="498">
        <route edges="136822578 1174874706"/>
    </vehicle>
    <vehicle id="veh_181" type="car" depart="500">
        <route edges="1112806233 160192389"/>
    </vehicle>
    <vehicle id="veh_182" type="car" depart="505">
        <route edges="136822578 1174874706"/>
    </vehicle>
    <vehicle id="veh_239" type="motorcycle" depart="505">
        <route edges="136822578 1174874706"/>
    </vehicle>
    <vehicle id="veh_240" type="motorcycle" depart="505">
        <route edges="136822578 1174874706"/>
    </vehicle>
    <vehicle id="jeepney_31" type="traditional_jeepney" depart="506">
        <route edges="1112806233 4588647"/>
    </vehicle>
    <vehicle id="veh_183" type="car" depart="512">
        <route edges="775437708 917450543"/>
    </vehicle>
    <vehicle id="veh_241" type="motorcycle" depart="512">
        <route edges="775437708 917450543"/>
    </vehicle>
    <vehicle id="veh_242" type="motorcycle" depart="517">
        <route edges="136822578 1174874706"/>
    </vehicle>
    <vehicle id="veh_184" type="car" depart="521">
        <route edges="136822578 1174874706"/>
    </vehicle>
    <vehicle id="veh_243" type="motorcycle" depart="521">
        <route edges="136822578 1174874706"/>
    </vehicle>
    <vehicle id="veh_244" type="motorcycle" depart="523">
        <route edges="775437708 917450543"/>
    </vehicle>