<?xml version="1.0" ?>
<routes xmlns:xsi="http://www.w3.org/2001/XMLSchema-instance" xsi:noNamespaceSchemaLocation="http://sumo.dlr.de/xsd/routes_file.xsd">
    <vehicle id="veh_35" type="motorcycle" depart="5">
        <route edges="136822578 1174874706"/>
    </vehicle>
    <vehicle id="veh_0" type="car" depart="7">
        <route edges="775437708 917450543"/>
    </vehicle>
    <vehicle id="veh_36" type="motorcycle" depart="11">
        <route edges="136822578 1174874706"/>
    </vehicle>
    <vehicle id="veh_1" type="car" depart="12">
        <route edges="136822578 1174874706"/>
    </vehicle>
    <vehicle id="veh_37" type="motorcycle" depart="13">
        <route edges="775437708 917450543"/>
    </vehicle>
    <vehicle id="veh_38" type="motorcycle" depart="15">
        <route edges="775437708 917450543"/>
    </vehicle>
    <vehicle id="veh_39" type="motorcycle" depart="17">
        <route edges="1112806233 160192389"/>
    </vehicle>
    <vehicle id="veh_40" type="motorcycle" depart="21">
        <route edges="775437708 917450543"/>
    </vehicle>
    <vehicle id="veh_2" type="car" depart="25">
        <route edges="775437708 917450543"/>
    </vehicle>
    <vehicle id="veh_41" type="motorcycle" depart="26">
        <route edges="775437708 917450543"/>
    </vehicle>
    <vehicle id="veh_3" type="car" depart="27">
        <route edges="-4588647 160192389"/>
    </vehicle>
    <vehicle id="veh_42" type="motorcycle" depart="29">
        <route edges="775437708 917450543"/>
    </vehicle>
    <vehicle id="veh_43" type="motorcycle" depart="31">
        <route edges="136822578 1174874706"/>
    </vehicle>
    <vehicle id="veh_4" type="car" depart="34">
        <route edges="775437708 917450543"/>
    </vehicle>
    <vehicle id="veh_44" type="motorcycle" depart="35">
        <route edges="775437708 917450543"/>
    </vehicle>
    <vehicle id="veh_5" type="car" depart="40">
        <route edges="136822578 1174874706"/>
    </vehicle>
    <vehicle id="veh_45" type="motorcycle" depart="41">
        <route edges="775437708 917450543"/>
    </vehicle>
    <vehicle id="veh_46" type="motorcycle" depart="45">
        <route edges="1112806233 4588647"/>
    </vehicle>
    <vehicle id="veh_6" type="car" depart="47">
        <route edges="136822578 1174874706"/>
    </vehicle>
    <vehicle id="veh_47" type="motorcycle" depart="51">
        <route edges="136822578 1174874706"/>
    </vehicle>
    <vehicle id="veh_48" type="motorcycle" depart="53">
        <route edges="136822578 1174874706"/>
    </vehicle>
    <vehicle id="veh_49" type="motorcycle" depart="55">
        <route edges="775437708 917450543"/>
    </vehicle>
    <vehicle id="veh_7" type="car" depart="57">
        <route edges="136822578 1174874706"/>
    </vehicle>
    <vehicle id="veh_124" type="bicycle" depart="58">
        <route edges="775437708 917450543"/>
    </vehicle>
    <vehicle id="veh_50" type="motorcycle" depart="61">
        <route edges="136822578 1174874706"/>
    </vehicle>
    <vehicle id="jeepney_0" type="traditional_jeepney" depart="62">
        <route edges="1112806233 4588647"/>
    </vehicle>
    <vehicle id="veh_8" type="car" depart="66">
        <route edges="775437708 917450543"/>
    </vehicle>
    <vehicle id="veh_51" type="motorcycle" depart="67">
        <route edges="136822578 1174874706"/>
    </vehicle>
    <vehicle id="veh_52" type="motorcycle" depart="70">
        <route edges="136822578 1174874706"/>
    </vehicle>
    <vehicle id="veh_53" type="motorcycle" depart="74">
        <route edges="136822578 1174874706"/>
    </vehicle>
    <vehicle id="veh_54" type="motorcycle" depart="75">
        <route edges="136822578 1174874706"/>
    </vehicle>
    <vehicle id="veh_9" type="car" depart="76">
        <route edges="136822578 1174874706"/>
    </vehicle>
    <vehicle id="veh_55" type="motorcycle" depart="80">
        <route edges="1112806233 4588647"/>
    </vehicle>
    <vehicle id="veh_114" type="truck" depart="80">
        <route edges="136822578 1174874706"/>
    </vehicle>
    <vehicle id="veh_56" type="motorcycle" depart="84">
        <route edges="775437708 917450543"/>
    </vehicle>
    <vehicle id="veh_10" type="car" depart="88">
        <route edges="136822578 1174874706"/>
    </vehicle>
    <vehicle id="veh_57" type="motorcycle" depart="90">
        <route edges="775437708 917450543"/>
    </vehicle>
    <vehicle id="veh_58" type="motorcycle" depart="92">
        <route edges="775437708 917450543"/>
    </vehicle>
    <vehicle id="veh_11" type="car" depart="96">
        <route edges="1112806233 4588647"/>
    </vehicle>
    <vehicle id="veh_59" type="motorcycle" depart="96">
        <route edges="136822578 1174874706"/>
    </vehicle>
    <vehicle id="veh_60" type="motorcycle" depart="101">
        <route edges="775437708 917450543"/>
    </vehicle>
    <vehicle id="veh_61" type="motorcycle" depart="103">
        <route edges="136822578 1174874706"/>
    </vehicle>
    <vehicle id="veh_12" type="car" depart="104">
        <route edges="136822578 1174874706"/>
    </vehicle>
    <vehicle id="veh_62" type="motorcycle" depart="104">
        <route edges="1112806233 160192389"/>
    </vehicle>
    <vehicle id="veh_63" type="motorcycle" depart="110">
        <route edges="775437708 917450543"/>
    </vehicle>
    <vehicle id="veh_64" type="motorcycle" depart="111">
        <route edges="775437708 917450543"/>
    </vehicle>
    <vehicle id="veh_65" type="motorcycle" depart="112">
        <route edges="136822578 1174874706"/>
    </vehicle>
    <vehicle id="veh_13" type="car" depart="115">
        <route edges="775437708 917450543"/>
    </vehicle>
    <vehicle id="veh_66" type="motorcycle" depart="116">
        <route edges="136822578 1174874706"/>
    </vehicle>
    <vehicle id="veh_67" type="motorcycle" depart="120">
        <route edges="775437708 917450543"/>
    </vehicle>
    <vehicle id="jeepney_1" type="traditional_jeepney" depart="120">
        <route edges="1112806233 4588647"/>
    </vehicle>
    <vehicle id="veh_14" type="car" depart="124">
        <route edges="775437708 917450543"/>
    </vehicle>
    <vehicle id="veh_68" type="motorcycle" depart="127">
        <route edges="-4588647 160192389"/>
    </vehicle>
    <vehicle id="veh_15" type="car" depart="129">
        <route edges="136822578 1174874706"/>
    </vehicle>
    <vehicle id="veh_69" type="motorcycle" depart="129">
        <route edges="775437708 917450543"/>
    </vehicle>
    <vehicle id="veh_16" type="car" depart="133">
        <route edges="775437708 917450543"/>
    </vehicle>
    <vehicle id="veh_70" type="motorcycle" depart="133">
        <route edges="775437708 917450543"/>
    </vehicle>
    <vehicle id="veh_17" type="car" depart="140">
        <route edges="775437708 917450543"/>
    </vehicle>
    <vehicle id="veh_71" type="motorcycle" depart="140">
        <route edges="1112806233 160192389"/>
    </vehicle>
    <vehicle id="veh_125" type="bicycle" depart="141">
        <route edges="136822578 1174874706"/>
    </vehicle>
    <vehicle id="veh_72" type="motorcycle" depart="143">
        <route edges="775437708 917450543"/>
    </vehicle>
    <vehicle id="veh_73" type="motorcycle" depart="145">
        <route edges="775437708 917450543"/>
    </vehicle>
    <vehicle id="veh_115" type="truck" depart="147">
        <route edges="136822578 1174874706"/>
    </vehicle>
    <vehicle id="veh_18" type="car" depart="148">
        <route edges="136822578 1174874706"/>
    </vehicle>
    <vehicle id="veh_74" type="motorcycle" depart="150">
        <route edges="775437708 917450543"/>
    </vehicle>
    <vehicle id="veh_75" type="motorcycle" depart="152">
        <route edges="775437708 917450543"/>
    </vehicle>
    <vehicle id="veh_118" type="bus" depart="154">
        <route edges="775437708 917450543"/>
    </vehicle>
    <vehicle id="veh_19" type="car" depart="156">
        <route edges="775437708 917450543"/>
    </vehicle>
    <vehicle id="veh_76" type="motorcycle" depart="157">
        <route edges="1112806233 4588647"/>
    </vehicle>
    <vehicle id="veh_20" type="car" depart="163">
        <route edges="136822578 1174874706"/>
    </vehicle>
    <vehicle id="veh_77" type="motorcycle" depart="163">
        <route edges="136822578 1174874706"/>
    </vehicle>
    <vehicle id="veh_78" type="motorcycle" depart="166">
        <route edges="775437708 917450543"/>
    </vehicle>
    <vehicle id="veh_21" type="car" depart="170">
        <route edges="775437708 917450543"/>
    </vehicle>
    <vehicle id="veh_79" type="motorcycle" depart="170">
        <route edges="775437708 917450543"/>
    </vehicle>
    <vehicle id="veh_80" type="motorcycle" depart="171">
        <route edges="136822578 1174874706"/>
    </vehicle>
    <vehicle id="veh_81" type="motorcycle" depart="175">
        <route edges="136822578 1174874706"/>
    </vehicle>
    <vehicle id="veh_82" type="motorcycle" depart="177">
        <route edges="136822578 1174874706"/>
    </vehicle>
    <vehicle id="veh_22" type="car" depart="179">
        <route edges="775437708 917450543"/>
    </vehicle>
    <vehicle id="veh_83" type="motorcycle" depart="180">
        <route edges="136822578 1174874706"/>
    </vehicle>
    <vehicle id="veh_84" type="motorcycle" depart="181">
        <route edges="775437708 917450543"/>
    </vehicle>
    <vehicle id="veh_85" type="motorcycle" depart="183">
        <route edges="775437708 917450543"/>
    </vehicle>
    <vehicle id="veh_86" type="motorcycle" depart="186">
        <route edges="136822578 1174874706"/>
    </vehicle>
    <vehicle id="jeepney_2" type="traditional_jeepney" depart="187">
        <route edges="1112806233 4588647"/>
    </vehicle>
    <vehicle id="veh_87" type="motorcycle" depart="190">
        <route edges="136822578 1174874706"/>
    </vehicle>
    <vehicle id="veh_88" type="motorcycle" depart="194">
        <route edges="1112806233 160192389"/>
    </vehicle>
    <vehicle id="veh_23" type="car" depart="195">
        <route edges="775437708 917450543"/>
    </vehicle>
    <vehicle id="veh_89" type="motorcycle" depart="198">
        <route edges="136822578 1174874706"/>
    </vehicle>
    <vehicle id="veh_90" type="motorcycle" depart="204">
        <route edges="775437708 917450543"/>
    </vehicle>
    <vehicle id="veh_24" type="car" depart="205">
        <route edges="136822578 1174874706"/>
    </vehicle>
    <vehicle id="veh_91" type="motorcycle" depart="207">
        <route edges="1112806233 4588647"/>
    </vehicle>
    <vehicle id="veh_92" type="motorcycle" depart="211">
        <route edges="136822578 1174874706"/>
    </vehicle>
    <vehicle id="veh_25" type="car" depart="212">
        <route edges="775437708 917450543"/>
    </vehicle>
    <vehicle id="veh_93" type="motorcycle" depart="216">
        <route edges="136822578 1174874706"/>
    </vehicle>
    <vehicle id="veh_26" type="car" depart="217">
        <route edges="775437708 917450543"/>
    </vehicle>
    <vehicle id="veh_116" type="truck" depart="220">
        <route edges="136822578 1174874706"/>
    </vehicle>
    <vehicle id="veh_94" type="motorcycle" depart="224">
        <route edges="775437708 917450543"/>
    </vehicle>
    <vehicle id="veh_27" type="car" depart="226">
        <route edges="775437708 917450543"/>
    </vehicle>
    <vehicle id="veh_95" type="motorcycle" depart="226">
        <route edges="775437708 917450543"/>
    </vehicle>
    <vehicle id="veh_96" type="motorcycle" depart="228">
        <route edges="136822578 1174874706"/>
    </vehicle>
    <vehicle id="veh_126" type="bicycle" depart="228">
        <route edges="136822578 1174874706"/>
    </vehicle>
    <vehicle id="veh_97" type="motorcycle" depart="234">
        <route edges="775437708 917450543"/>
    </vehicle>
    <vehicle id="veh_28" type="car" depart="236">
        <route edges="775437708 917450543"/>
    </vehicle>
    <vehicle id="jeepney_3" type="traditional_jeepney" depart="236">
        <route edges="1112806233 4588647"/>
    </vehicle>
    <vehicle id="veh_98" type="motorcycle" depart="239">
        <route edges="136822578 1174874706"/>
    </vehicle>
    <vehicle id="veh_99" type="motorcycle" depart="244">
        <route edges="136822578 1174874706"/>
    </vehicle>
    <vehicle id="veh_29" type="car" depart="248">
        <route edges="775437708 917450543"/>
    </vehicle>
    <vehicle id="veh_100" type="motorcycle" depart="250">
        <route edges="136822578 1174874706"/>
    </vehicle>
    <vehicle id="veh_101" type="motorcycle" depart="253">
        <route edges="136822578 1174874706"/>
    </vehicle>
    <vehicle id="veh_102" type="motorcycle" depart="254">
        <route edges="775437708 917450543"/>
    </vehicle>
    <vehicle id="veh_30" type="car" depart="258">
        <route edges="136822578 1174874706"/>
    </vehicle>
    <vehicle id="veh_103" type="motorcycle" depart="260">
        <route edges="775437708 917450543"/>
    </vehicle>
    <vehicle id="veh_104" type="motorcycle" depart="266">
        <route edges="136822578 1174874706"/>
    </vehicle>
    <vehicle id="veh_31" type="car" depart="268">
        <route edges="136822578 1174874706"/>
    </vehicle>
    <vehicle id="veh_105" type="motorcycle" depart="270">
        <route edges="775437708 917450543"/>
    </vehicle>
    <vehicle id="veh_32" type="car" depart="274">
        <route edges="136822578 1174874706"/>
    </vehicle>
    <vehicle id="veh_106" type="motorcycle" depart="275">
        <route edges="1112806233 4588647"/>
    </vehicle>
    <vehicle id="veh_107" type="motorcycle" depart="279">
        <route edges="136822578 1174874706"/>
    </vehicle>
    <vehicle id="veh_33" type="car" depart="282">
        <route edges="775437708 917450543"/>
    </vehicle>
    <vehicle id="veh_108" type="motorcycle" depart="282">
        <route edges="775437708 917450543"/>
    </vehicle>
    <vehicle id="veh_109" type="motorcycle" depart="283">
        <route edges="136822578 1174874706"/>
    </vehicle>
    <vehicle id="veh_110" type="motorcycle" depart="285">
        <route edges="1112806233 160192389"/>
    </vehicle>
    <vehicle id="veh_111" type="motorcycle" depart="287">
        <route edges="775437708 917450543"/>
    </vehicle>
    <vehicle id="veh_117" type="truck" depart="290">
        <route edges="775437708 917450543"/>
    </vehicle>
    <vehicle id="veh_34" type="car" depart="292">
        <route edges="136822578 1174874706"/>
    </vehicle>
    <vehicle id="veh_112" type="motorcycle" depart="293">
        <route edges="775437708 917450543"/>
    </vehicle>
    <vehicle id="veh_127" type="bicycle" depart="296">
        <route edges="136822578 1174874706"/>
    </vehicle>
    <vehicle id="veh_113" type="motorcycle" depart="297">
        <route edges="136822578 1174874706"/>
    </vehicle>
    <vehicle id="jeepney_4" type="traditional_jeepney" depart="299">
        <route edges="1112806233 4588647"/>
    </vehicle>
    <vehicle id="veh_170" type="motorcycle" depart="306">
        <route edges="136822578 1174874706"/>
    </vehicle>
    <vehicle id="veh_128" type="car" depart="307">
        <route edges="775437708 917450543"/>
    </vehicle>
    <vehicle id="veh_238" type="bicycle" depart="309">
        <route edges="775437708 917450543"/>
    </vehicle>
    <vehicle id="veh_171" type="motorcycle" depart="312">
        <route edges="775437708 917450543"/>
    </vehicle>
    <vehicle id="veh_129" type="car" depart="314">
        <route edges="136822578 1174874706"/>
    </vehicle>
    <vehicle id="veh_239" type="bicycle" depart="317">
        <route edges="136822578 1174874706"/>
    </vehicle>
    <vehicle id="veh_130" type="car" depart="318">
        <route edges="136822578 1174874706"/>
    </vehicle>
    <vehicle id="veh_172" type="motorcycle" depart="320">
        <route edges="136822578 1174874706"/>
    </vehicle>
    <vehicle id="jeepney_5" type="traditional_jeepney" depart="322">
        <route edges="-4588647 -917450542 1174874706"/>
    </vehicle>
    <vehicle id="veh_173" type="motorcycle" depart="325">
        <route edges="775437708 917450543"/>
    </vehicle>
    <vehicle id="veh_131" type="car" depart="326">
        <route edges="-4588647 160192389"/>
    </vehicle>
    <vehicle id="veh_240" type="bicycle" depart="327">
        <route edges="775437708 917450543"/>
    </vehicle>
    <vehicle id="veh_174" type="motorcycle" depart="329">
        <route edges="775437708 917450543"/>
    </vehicle>
    <vehicle id="veh_241" type="bicycle" depart="334">
        <route edges="136822578 1174874706"/>
    </vehicle>
    <vehicle id="veh_132" type="car" depart="336">
        <route edges="775437708 917450543"/>
    </vehicle>
    <vehicle id="veh_175" type="motorcycle" depart="338">
        <route edges="136822578 1174874706"/>
    </vehicle>
    <vehicle id="veh_242" type="bicycle" depart="340">
        <route edges="136822578 1174874706"/>
    </vehicle>
    <vehicle id="veh_133" type="car" depart="341">
        <route edges="775437708 917450543"/>
    </vehicle>
    <vehicle id="veh_176" type="motorcycle" depart="342">
        <route edges="775437708 917450543"/>
    </vehicle>
    <vehicle id="veh_177" type="motorcycle" depart="344">
        <route edges="775437708 917450543"/>
    </vehicle>
    <vehicle id="jeepney_6" type="traditional_jeepney" depart="344">
        <route edges="1112806233 4588647"/>
    </vehicle>
    <vehicle id="veh_134" type="car" depart="349">
        <route edges="775437708 917450543"/>
    </vehicle>
    <vehicle id="veh_243" type="bicycle" depart="349">
        <route edges="775437708 917450543"/>
    </vehicle>
    <vehicle id="veh_178" type="motorcycle" depart="351">
        <route edges="136822578 1174874706"/>
    </vehicle>
    <vehicle id="veh_219" type="truck" depart="356">
        <route edges="775437708 917450543"/>
    </vehicle>
    <vehicle id="veh_244" type="bicycle" depart="356">
        <route edges="775437708 917450543"/>
    </vehicle>
    <vehicle id="veh_179" type="motorcycle" depart="358">
        <route edges="136822578 1174874706"/>
    </vehicle>
    <vehicle id="veh_245" type="bicycle" depart="361">
        <route edges="136822578 1174874706"/>
    </vehicle>
    <vehicle id="veh_135" type="car" depart="362">
        <route edges="136822578 1174874706"/>
    </vehicle>
    <vehicle id="veh_180" type="motorcycle" depart="362">
        <route edges="775437708 917450543"/>
    </vehicle>
    <vehicle id="jeepney_7" type="traditional_jeepney" depart="363">
        <route edges="-4588647 -917450542 1174874706"/>
    </vehicle>
    <vehicle id="veh_181" type="motorcycle" depart="366">
        <route edges="136822578 1174874706"/>
    </vehicle>
    <vehicle id="veh_136" type="car" depart="367">
        <route edges="775437708 917450543"/>
    </vehicle>
    <vehicle id="veh_137" type="car" depart="373">
        <route edges="775437708 917450543"/>
    </vehicle>
    <vehicle id="veh_182" type="motorcycle" depart="373">
        <route edges="1112806233 160192389"/>
    </vehicle>
    <vehicle id="veh_246" type="bicycle" depart="373">
        <route edges="775437708 917450543"/>
    </vehicle>
    <vehicle id="veh_247" type="bicycle" depart="378">
        <route edges="136822578 1174874706"/>
    </vehicle>
    <vehicle id="veh_183" type="motorcycle" depart="379">
        <route edges="136822578 1174874706"/>
    </vehicle>
    <vehicle id="veh_138" type="car" depart="380">
        <route edges="1112806233 160192389"/>
    </vehicle>
    <vehicle id="veh_139" type="car" depart="385">
        <route edges="136822578 1174874706"/>
    </vehicle>
    <vehicle id="veh_184" type="motorcycle" depart="385">
        <route edges="775437708 917450543"/>
    </vehicle>
    <vehicle id="jeepney_8" type="traditional_jeepney" depart="386">
        <route edges="-4588647 -917450542 1174874706"/>
    </vehicle>
    <vehicle id="veh_248" type="bicycle" depart="386">
        <route edges="136822578 1174874706"/>
    </vehicle>
    <vehicle id="veh_185" type="motorcycle" depart="389">
        <route edges="775437708 917450543"/>
    </vehicle>
    <vehicle id="veh_249" type="bicycle" depart="390">
        <route edges="775437708 917450543"/>
    </vehicle>
    <vehicle id="veh_140" type="car" depart="393">
        <route edges="775437708 917450543"/>
    </vehicle>
    <vehicle id="veh_186" type="motorcycle" depart="393">
        <route edges="136822578 1174874706"/>
    </vehicle>
    <vehicle id="veh_187" type="motorcycle" depart="396">
        <route edges="1112806233 4588647"/>
    </vehicle>
    <vehicle id="veh_141" type="car" depart="398">
        <route edges="775437708 917450543"/>
    </vehicle>
    <vehicle id="veh_250" type="bicycle" depart="400">
        <route edges="775437708 917450543"/>
    </vehicle>
    <vehicle id="jeepney_9" type="traditional_jeepney" depart="403">
        <route edges="1112806233 4588647"/>
    </vehicle>
    <vehicle id="veh_188" type="motorcycle" depart="404">
        <route edges="136822578 1174874706"/>
    </vehicle>
    <vehicle id="veh_251" type="bicycle" depart="405">
        <route edges="775437708 917450543"/>
    </vehicle>
    <vehicle id="veh_189" type="motorcycle" depart="408">
        <route edges="136822578 1174874706"/>
    </vehicle>
    <vehicle id="veh_142" type="car" depart="410">
        <route edges="136822578 1174874706"/>
    </vehicle>
    <vehicle id="veh_143" type="car" depart="412">
        <route edges="136822578 1174874706"/>
    </vehicle>
    <vehicle id="veh_220" type="truck" depart="413">
        <route edges="775437708 917450543"/>
    </vehicle>
    <vehicle id="veh_190" type="motorcycle" depart="414">
        <route edges="775437708 917450543"/>
    </vehicle>
    <vehicle id="veh_252" type="bicycle" depart="414">
        <route edges="-4588647 160192389"/>
    </vehicle>
    <vehicle id="veh_191" type="motorcycle" depart="419">
        <route edges="136822578 1174874706"/>
    </vehicle>
    <vehicle id="veh_144" type="car" depart="420">
        <route edges="1112806233 160192389"/>
    </vehicle>
    <vehicle id="veh_253" type="bicycle" depart="422">
        <route edges="775437708 917450543"/>
    </vehicle>
    <vehicle id="jeepney_10" type="traditional_jeepney" depart="423">
        <route edges="1112806233 4588647"/>
    </vehicle>
    <vehicle id="veh_192" type="motorcycle" depart="424">
        <route edges="136822578 1174874706"/>
    </vehicle>
    <vehicle id="veh_193" type="motorcycle" depart="431">
        <route edges="775437708 917450543"/>
    </vehicle>
    <vehicle id="veh_145" type="car" depart="432">
        <route edges="775437708 917450543"/>
    </vehicle>
    <vehicle id="veh_254" type="bicycle" depart="432">
        <route edges="136822578 1174874706"/>
    </vehicle>
    <vehicle id="veh_194" type="motorcycle" depart="438">
        <route edges="136822578 1174874706"/>
    </vehicle>
    <vehicle id="jeepney_11" type="traditional_jeepney" depart="441">
        <route edges="-4588647 -917450542 1174874706"/>
    </vehicle>
    <vehicle id="veh_146" type="car" depart="442">
        <route edges="775437708 917450543"/>
    </vehicle>
    <vehicle id="veh_195" type="motorcycle" depart="444">
        <route edges="136822578 1174874706"/>
    </vehicle>
    <vehicle id="veh_255" type="bicycle" depart="444">
        <route edges="136822578 1174874706"/>
    </vehicle>
    <vehicle id="veh_147" type="car" depart="448">
        <route edges="1112806233 160192389"/>
    </vehicle>
    <vehicle id="veh_196" type="motorcycle" depart="448">
        <route edges="1112806233 4588647"/>
    </vehicle>
    <vehicle id="veh_256" type="bicycle" depart="453">
        <route edges="775437708 917450543"/>
    </vehicle>
    <vehicle id="veh_148" type="car" depart="454">
        <route edges="775437708 917450543"/>
    </vehicle>
    <vehicle id="veh_149" type="car" depart="456">
        <route edges="136822578 1174874706"/>
    </vehicle>
    <vehicle id="veh_197" type="motorcycle" depart="459">
        <route edges="1112806233 4588647"/>
    </vehicle>
    <vehicle id="veh_257" type="bicycle" depart="461">
        <route edges="775437708 917450543"/>
    </vehicle>
    <vehicle id="veh_198" type="motorcycle" depart="466">
        <route edges="136822578 1174874706"/>
    </vehicle>
    <vehicle id="veh_221" type="truck" depart="466">
        <route edges="775437708 917450543"/>
    </vehicle>
    <vehicle id="jeepney_12" type="traditional_jeepney" depart="467">
        <route edges="1112806233 4588647"/>
    </vehicle>
    <vehicle id="veh_150" type="car" depart="468">
        <route edges="1112806233 4588647"/>
    </vehicle>
    <vehicle id="veh_258" type="bicycle" depart="470">
        <route edges="136822578 1174874706"/>
    </vehicle>
    <vehicle id="veh_199" type="motorcycle" depart="472">
        <route edges="775437708 917450543"/>
    </vehicle>
    <vehicle id="veh_151" type="car" depart="473">
        <route edges="136822578 1174874706"/>
    </vehicle>
    <vehicle id="veh_200" type="motorcycle" depart="476">
        <route edges="775437708 917450543"/>
    </vehicle>
    <vehicle id="veh_201" type="motorcycle" depart="479">
        <route edges="775437708 917450543"/>
    </vehicle>
    <vehicle id="veh_259" type="bicycle" depart="479">
        <route edges="136822578 1174874706"/>
    </vehicle>
    <vehicle id="veh_152" type="car" depart="481">
        <route edges="775437708 917450543"/>
    </vehicle>
    <vehicle id="veh_202" type="motorcycle" depart="485">
        <route edges="775437708 917450543"/>
    </vehicle>
    <vehicle id="veh_260" type="bicycle" depart="491">
        <route edges="136822578 1174874706"/>
    </vehicle>
    <vehicle id="veh_153" type="car" depart="492">
        <route edges="775437708 917450543"/>
    </vehicle>
    <vehicle id="veh_203" type="motorcycle" depart="494">
        <route edges="136822578 1174874706"/>
    </vehicle>
    <vehicle id="jeepney_13" type="traditional_jeepney" depart="494">
        <route edges="1112806233 4588647"/>
    </vehicle>
    <vehicle id="veh_204" type="motorcycle" depart="497">
        <route edges="775437708 917450543"/>
    </vehicle>
    <vehicle id="veh_154" type="car" depart="498">
        <route edges="775437708 917450543"/>
    </vehicle>
    <vehicle id="veh_261" type="bicycle" depart="501">
        <route edges="136822578 1174874706"/>
    </vehicle>
    <vehicle id="veh_205" type="motorcycle" depart="505">
        <route edges="775437708 917450543"/>
    </vehicle>
    <vehicle id="veh_155" type="car" depart="507">
        <route edges="1112806233 4588647"/>
    </vehicle>
    <vehicle id="veh_206" type="motorcycle" depart="509">
        <route edges="136822578 1174874706"/>
    </vehicle>
    <vehicle id="veh_262" type="bicycle" depart="509">
        <route edges="136822578 1174874706"/>
    </vehicle>
    <vehicle id="veh_156" type="car" depart="512">
        <route edges="136822578 1174874706"/>
    </vehicle>
    <vehicle id="veh_207" type="motorcycle" depart="512">
        <route edges="775437708 917450543"/>
    </vehicle>
    <vehicle id="veh_222" type="truck" depart="514">
        <route edges="136822578 1174874706"/>
    </vehicle>
    <vehicle id="jeepney_14" type="traditional_jeepney" depart="518">
        <route edges="-4588647 -917450542 1174874706"/>
    </vehicle>
    <vehicle id="veh_208" type="motorcycle" depart="519">
        <route edges="136822578 1174874706"/>
    </vehicle>
    <vehicle id="veh_157" type="car" depart="521">
        <route edges="1112806233 160192389"/>
    </vehicle>
    <vehicle id="veh_263" type="bicycle" depart="521">
        <route edges="136822578 1174874706"/>
    </vehicle>
    <vehicle id="veh_209" type="motorcycle" depart="525">
        <route edges="136822578 1174874706"/>
    </vehicle>
    <vehicle id="veh_264" type="bicycle" depart="526">
        <route edges="136822578 1174874706"/>
    </vehicle>
    <vehicle id="veh_158" type="car" depart="531">
        <route edges="136822578 1174874706"/>
    </vehicle>
    <vehicle id="veh_265" type="bicycle" depart="532">
        <route edges="775437708 917450543"/>
    </vehicle>
    <vehicle id="veh_210" type="motorcycle" depart="535">
        <route edges="775437708 917450543"/>
    </vehicle>
    <vehicle id="veh_159" type="car" depart="536">
        <route edges="775437708 917450543"/>
    </vehicle>
    <vehicle id="jeepney_15" type="traditional_jeepney" depart="537">
        <route edges="1112806233 4588647"/>
    </vehicle>
    <vehicle id="veh_266" type="bicycle" depart="541">
        <route edges="136822578 1174874706"/>
    </vehicle>
    <vehicle id="veh_160" type="car" depart="542">
        <route edges="136822578 1174874706"/>
    </vehicle>
    <vehicle id="veh_211" type="motorcycle" depart="544">
        <route edges="775437708 917450543"/>
    </vehicle>
    <vehicle id="veh_161" type="car" depart="546">
        <route edges="1112806233 160192389"/>
    </vehicle>
    <vehicle id="veh_162" type="car" depart="554">
        <route edges="136822578 1174874706"/>
    </vehicle>
    <vehicle id="veh_212" type="motorcycle" depart="555">
        <route edges="136822578 1174874706"/>
    </vehicle>
    <vehicle id="veh_267" type="bicycle" depart="555">
        <route edges="775437708 917450543"/>
    </vehicle>
    <vehicle id="jeepney_16" type="traditional_jeepney" depart="556">
        <route edges="-4588647 -917450542 1174874706"/>
    </vehicle>
    <vehicle id="veh_163" type="car" depart="558">
        <route edges="136822578 1174874706"/>
    </vehicle>
    <vehicle id="veh_213" type="motorcycle" depart="560">
        <route edges="775437708 917450543"/>
    </vehicle>
    <vehicle id="veh_164" type="car" depart="564">
        <route edges="775437708 917450543"/>
    </vehicle>
    <vehicle id="veh_214" type="motorcycle" depart="564">
        <route edges="136822578 1174874706"/>
    </vehicle>
    <vehicle id="veh_268" type="bicycle" depart="565">