<?xml version="1.0" ?>
<routes xmlns:xsi="http://www.w3.org/2001/XMLSchema-instance" xsi:noNamespaceSchemaLocation="http://sumo.dlr.de/xsd/routes_file.xsd">
    <vehicle id="veh_37" type="motorcycle" depart="1">
        <route edges="775437708 917450543"/>
    </vehicle>
    <vehicle id="veh_0" type="car" depart="3">
        <route edges="136822578 1174874706"/>
    </vehicle>
    <vehicle id="veh_38" type="motorcycle" depart="5">
        <route edges="136822578 1174874706"/>
    </vehicle>
    <vehicle id="veh_1" type="car" depart="10">
        <route edges="136822578 1174874706"/>
    </vehicle>
    <vehicle id="veh_39" type="motorcycle" depart="13">
        <route edges="136822578 1174874706"/>
    </vehicle>
    <vehicle id="veh_2" type="car" depart="17">
        <route edges="1112806233 160192389"/>
    </vehicle>
    <vehicle id="veh_40" type="motorcycle" depart="17">
        <route edges="136822578 1174874706"/>
    </vehicle>
    <vehicle id="veh_41" type="motorcycle" depart="21">
        <route edges="775437708 917450543"/>
    </vehicle>
    <vehicle id="veh_42" type="motorcycle" depart="26">
        <route edges="775437708 917450543"/>
    </vehicle>
    <vehicle id="veh_43" type="motorcycle" depart="28">
        <route edges="775437708 917450543"/>
    </vehicle>
    <vehicle id="veh_3" type="car" depart="30">
        <route edges="775437708 917450543"/>
    </vehicle>
    <vehicle id="veh_44" type="motorcycle" depart="30">
        <route edges="775437708 917450543"/>
    </vehicle>
    <vehicle id="veh_45" type="motorcycle" depart="38">
        <route edges="-4588647 -917450542 1174874706"/>
    </vehicle>
    <vehicle id="veh_46" type="motorcycle" depart="39">
        <route edges="136822578 1174874706"/>
    </vehicle>
    <vehicle id="veh_4" type="car" depart="41">
        <route edges="775437708 917450543"/>
    </vehicle>
    <vehicle id="veh_47" type="motorcycle" depart="43">
        <route edges="136822578 1174874706"/>
    </vehicle>
    <vehicle id="veh_48" type="motorcycle" depart="44">
        <route edges="136822578 1174874706"/>
    </vehicle>
    <vehicle id="veh_49" type="motorcycle" depart="45">
        <route edges="136822578 1174874706"/>
    </vehicle>
    <vehicle id="veh_50" type="motorcycle" depart="46">
        <route edges="136822578 1174874706"/>
    </vehicle>
    <vehicle id="veh_5" type="car" depart="48">
        <route edges="136822578 1174874706"/>
    </vehicle>
    <vehicle id="veh_51" type="motorcycle" depart="50">
        <route edges="775437708 917450543"/>
    </vehicle>
    <vehicle id="veh_52" type="motorcycle" depart="54">
        <route edges="775437708 917450543"/>
    </vehicle>
    <vehicle id="veh_6" type="car" depart="55">
        <route edges="136822578 1174874706"/>
    </vehicle>
    <vehicle id="jeepney_0" type="traditional_jeepney" depart="56">
        <route edges="-4588647 -917450542 1174874706"/>
    </vehicle>
    <vehicle id="veh_130" type="bicycle" depart="57">
        <route edges="775437708 917450543"/>
    </vehicle>
    <vehicle id="veh_53" type="motorcycle" depart="59">
        <route edges="775437708 917450543"/>
    </vehicle>
    <vehicle id="veh_54" type="motorcycle" depart="61">
        <route edges="136822578 1174874706"/>
    </vehicle>
    <vehicle id="veh_7" type="car" depart="66">
        <route edges="775437708 917450543"/>
    </vehicle>
    <vehicle id="veh_55" type="motorcycle" depart="66">
        <route edges="136822578 1174874706"/>
    </vehicle>
    <vehicle id="veh_56" type="motorcycle" depart="66">
        <route edges="136822578 1174874706"/>
    </vehicle>
    <vehicle id="veh_8" type="car" depart="71">
        <route edges="775437708 917450543"/>
    </vehicle>
    <vehicle id="veh_57" type="motorcycle" depart="72">
        <route edges="775437708 917450543"/>
    </vehicle>
    <vehicle id="veh_58" type="motorcycle" depart="72">
        <route edges="136822578 1174874706"/>
    </vehicle>
    <vehicle id="veh_59" type="motorcycle" depart="74">
        <route edges="775437708 917450543"/>
    </vehicle>
    <vehicle id="veh_9" type="car" depart="77">
        <route edges="136822578 1174874706"/>
    </vehicle>
    <vehicle id="veh_60" type="motorcycle" depart="78">
        <route edges="1112806233 4588647"/>
    </vehicle>
    <vehicle id="veh_10" type="car" depart="81">
        <route edges="775437708 917450543"/>
    </vehicle>
    <vehicle id="veh_61" type="motorcycle" depart="81">
        <route edges="136822578 1174874706"/>
    </vehicle>
    <vehicle id="veh_62" type="motorcycle" depart="84">
        <route edges="1112806233 160192389"/>
    </vehicle>
    <vehicle id="veh_120" type="truck" depart="85">
        <route edges="775437708 917450543"/>
    </vehicle>
    <vehicle id="veh_63" type="motorcycle" depart="88">
        <route edges="136822578 1174874706"/>
    </vehicle>
    <vehicle id="veh_11" type="car" depart="89">
        <route edges="775437708 917450543"/>
    </vehicle>
    <vehicle id="veh_64" type="motorcycle" depart="89">
        <route edges="136822578 1174874706"/>
    </vehicle>
    <vehicle id="veh_12" type="car" depart="94">
        <route edges="136822578 1174874706"/>
    </vehicle>
    <vehicle id="veh_65" type="motorcycle" depart="96">
        <route edges="775437708 917450543"/>
    </vehicle>
    <vehicle id="veh_66" type="motorcycle" depart="97">
        <route edges="775437708 917450543"/>
    </vehicle>
    <vehicle id="veh_13" type="car" depart="101">
        <route edges="1112806233 4588647"/>
    </vehicle>
    <vehicle id="veh_67" type="motorcycle" depart="101">
        <route edges="775437708 917450543"/>
    </vehicle>
    <vehicle id="veh_14" type="car" depart="105">
        <route edges="775437708 917450543"/>
    </vehicle>
    <vehicle id="veh_68" type="motorcycle" depart="106">
        <route edges="775437708 917450543"/>
    </vehicle>
    <vehicle id="veh_69" type="motorcycle" depart="106">
        <route edges="136822578 1174874706"/>
    </vehicle>
    <vehicle id="veh_70" type="motorcycle" depart="109">
        <route edges="775437708 917450543"/>
    </vehicle>
    <vehicle id="jeepney_1" type="traditional_jeepney" depart="109">
        <route edges="1112806233 4588647"/>
    </vehicle>
    <vehicle id="veh_131" type="bicycle" depart="113">
        <route edges="136822578 1174874706"/>
    </vehicle>
    <vehicle id="veh_71" type="motorcycle" depart="114">
        <route edges="775437708 917450543"/>
    </vehicle>
    <vehicle id="veh_15" type="car" depart="116">
        <route edges="775437708 917450543"/>
    </vehicle>
    <vehicle id="veh_72" type="motorcycle" depart="124">
        <route edges="136822578 1174874706"/>
    </vehicle>
    <vehicle id="veh_73" type="motorcycle" depart="127">
        <route edges="136822578 1174874706"/>
    </vehicle>
    <vehicle id="veh_16" type="car" depart="129">
        <route edges="1112806233 160192389"/>
    </vehicle>
    <vehicle id="veh_74" type="motorcycle" depart="133">
        <route edges="136822578 1174874706"/>
    </vehicle>
    <vehicle id="veh_75" type="motorcycle" depart="139">
        <route edges="775437708 917450543"/>
    </vehicle>
    <vehicle id="veh_17" type="car" depart="141">
        <route edges="136822578 1174874706"/>
    </vehicle>
    <vehicle id="veh_76" type="motorcycle" depart="142">
        <route edges="136822578 1174874706"/>
    </vehicle>
    <vehicle id="veh_77" type="motorcycle" depart="146">
        <route edges="775437708 917450543"/>
    </vehicle>
    <vehicle id="veh_18" type="car" depart="147">
        <route edges="136822578 1174874706"/>
    </vehicle>
    <vehicle id="veh_123" type="bus" depart="147">
        <route edges="136822578 1174874706"/>
    </vehicle>
    <vehicle id="veh_78" type="motorcycle" depart="150">
        <route edges="1112806233 4588647"/>
    </vehicle>
    <vehicle id="veh_79" type="motorcycle" depart="152">
        <route edges="136822578 1174874706"/>
    </vehicle>
    <vehicle id="veh_121" type="truck" depart="154">
        <route edges="136822578 1174874706"/>
    </vehicle>
    <vehicle id="veh_19" type="car" depart="156">
        <route edges="136822578 1174874706"/>
    </vehicle>
    <vehicle id="veh_80" type="motorcycle" depart="157">
        <route edges="136822578 1174874706"/>
    </vehicle>
    <vehicle id="veh_81" type="motorcycle" depart="160">
        <route edges="775437708 917450543"/>
    </vehicle>
    <vehicle id="veh_20" type="car" depart="162">
        <route edges="775437708 917450543"/>
    </vehicle>
    <vehicle id="veh_82" type="motorcycle" depart="163">
        <route edges="136822578 1174874706"/>
    </vehicle>
    <vehicle id="veh_21" type="car" depart="165">
        <route edges="136822578 1174874706"/>
    </vehicle>
    <vehicle id="veh_83" type="motorcycle" depart="165">
        <route edges="775437708 917450543"/>
    </vehicle>
    <vehicle id="veh_84" type="motorcycle" depart="168">
        <route edges="775437708 917450543"/>
    </vehicle>
    <vehicle id="veh_85" type="motorcycle" depart="169">
        <route edges="136822578 1174874706"/>
    </vehicle>
    <vehicle id="jeepney_2" type="traditional_jeepney" depart="170">
        <route edges="-4588647 -917450542 1174874706"/>
    </vehicle>
    <vehicle id="veh_86" type="motorcycle" depart="171">
        <route edges="136822578 1174874706"/>
    </vehicle>
    <vehicle id="veh_87" type="motorcycle" depart="172">
        <route edges="136822578 1174874706"/>
    </vehicle>
    <vehicle id="veh_22" type="car" depart="174">
        <route edges="775437708 917450543"/>
    </vehicle>
    <vehicle id="veh_88" type="motorcycle" depart="175">
        <route edges="775437708 917450543"/>
    </vehicle>
    <vehicle id="veh_89" type="motorcycle" depart="177">
        <route edges="136822578 1174874706"/>
    </vehicle>
    <vehicle id="veh_23" type="car" depart="179">
        <route edges="775437708 917450543"/>
    </vehicle>
    <vehicle id="veh_90" type="motorcycle" depart="181">
        <route edges="775437708 917450543"/>
    </vehicle>
    <vehicle id="veh_91" type="motorcycle" depart="182">
        <route edges="136822578 1174874706"/>
    </vehicle>
    <vehicle id="veh_92" type="motorcycle" depart="186">
        <route edges="775437708 917450543"/>
    </vehicle>
    <vehicle id="veh_24" type="car" depart="189">
        <route edges="136822578 1174874706"/>
    </vehicle>
    <vehicle id="veh_93" type="motorcycle" depart="189">
        <route edges="775437708 917450543"/>
    </vehicle>
    <vehicle id="veh_94" type="motorcycle" depart="195">
        <route edges="775437708 917450543"/>
    </vehicle>
    <vehicle id="veh_25" type="car" depart="196">
        <route edges="1112806233 4588647"/>
    </vehicle>
    <vehicle id="veh_132" type="bicycle" depart="196">
        <route edges="775437708 917450543"/>
    </vehicle>
    <vehicle id="veh_95" type="motorcycle" depart="198">
        <route edges="136822578 1174874706"/>
    </vehicle>
    <vehicle id="veh_26" type="car" depart="201">
        <route edges="1112806233 4588647"/>
    </vehicle>
    <vehicle id="veh_96" type="motorcycle" depart="202">
        <route edges="1112806233 4588647"/>
    </vehicle>
    <vehicle id="veh_97" type="motorcycle" depart="204">
        <route edges="136822578 1174874706"/>
    </vehicle>
    <vehicle id="veh_98" type="motorcycle" depart="211">
        <route edges="136822578 1174874706"/>
    </vehicle>
    <vehicle id="veh_99" type="motorcycle" depart="213">
        <route edges="1112806233 4588647"/>
    </vehicle>
    <vehicle id="veh_27" type="car" depart="214">
        <route edges="775437708 917450543"/>
    </vehicle>
    <vehicle id="veh_100" type="motorcycle" depart="218">
        <route edges="136822578 1174874706"/>
    </vehicle>
    <vehicle id="veh_28" type="car" depart="221">
        <route edges="136822578 1174874706"/>
    </vehicle>
    <vehicle id="jeepney_3" type="traditional_jeepney" depart="224">
        <route edges="1112806233 4588647"/>
    </vehicle>
    <vehicle id="veh_101" type="motorcycle" depart="225">
        <route edges="136822578 1174874706"/>
    </vehicle>
    <vehicle id="veh_29" type="car" depart="226">
        <route edges="775437708 917450543"/>
    </vehicle>
    <vehicle id="veh_102" type="motorcycle" depart="227">
        <route edges="1112806233 4588647"/>
    </vehicle>
    <vehicle id="veh_103" type="motorcycle" depart="231">
        <route edges="775437708 917450543"/>
    </vehicle>
    <vehicle id="veh_104" type="motorcycle" depart="231">
        <route edges="775437708 917450543"/>
    </vehicle>
    <vehicle id="veh_122" type="truck" depart="236">
        <route edges="775437708 917450543"/>
    </vehicle>
    <vehicle id="veh_105" type="motorcycle" depart="237">
        <route edges="136822578 1174874706"/>
    </vehicle>
    <vehicle id="veh_106" type="motorcycle" depart="238">
        <route edges="136822578 1174874706"/>
    </vehicle>
    <vehicle id="veh_107" type="motorcycle" depart="241">
        <route edges="136822578 1174874706"/>
    </vehicle>
    <vehicle id="veh_30" type="car" depart="242">
        <route edges="136822578 1174874706"/>
    </vehicle>
    <vehicle id="veh_108" type="motorcycle" depart="242">
        <route edges="775437708 917450543"/>
    </vehicle>
    <vehicle id="veh_109" type="motorcycle" depart="247">
        <route edges="136822578 1174874706"/>
    </vehicle>
    <vehicle id="veh_110" type="motorcycle" depart="247">
        <route edges="136822578 1174874706"/>
    </vehicle>
    <vehicle id="veh_111" type="motorcycle" depart="252">
        <route edges="136822578 1174874706"/>
    </vehicle>
    <vehicle id="veh_112" type="motorcycle" depart="255">
        <route edges="136822578 1174874706"/>
    </vehicle>
    <vehicle id="veh_31" type="car" depart="256">
        <route edges="775437708 917450543"/>
    </vehicle>
    <vehicle id="veh_32" type="car" depart="263">
        <route edges="136822578 1174874706"/>
    </vehicle>
    <vehicle id="veh_113" type="motorcycle" depart="263">
        <route edges="775437708 917450543"/>
    </vehicle>
    <vehicle id="veh_133" type="bicycle" depart="263">
        <route edges="136822578 1174874706"/>
    </vehicle>
    <vehicle id="veh_114" type="motorcycle" depart="272">
        <route edges="775437708 917450543"/>
    </vehicle>
    <vehicle id="veh_33" type="car" depart="275">
        <route edges="775437708 917450543"/>
    </vehicle>
    <vehicle id="veh_115" type="motorcycle" depart="276">
        <route edges="136822578 1174874706"/>
    </vehicle>
    <vehicle id="jeepney_4" type="traditional_jeepney" depart="281">
        <route edges="-4588647 -917450542 1174874706"/>
    </vehicle>
    <vehicle id="veh_34" type="car" depart="282">
        <route edges="775437708 917450543"/>
    </vehicle>
    <vehicle id="veh_116" type="motorcycle" depart="283">
        <route edges="136822578 1174874706"/>
    </vehicle>
    <vehicle id="veh_117" type="motorcycle" depart="289">
        <route edges="136822578 1174874706"/>
    </vehicle>
    <vehicle id="veh_35" type="car" depart="291">
        <route edges="136822578 1174874706"/>
    </vehicle>
    <vehicle id="veh_124" type="bus" depart="291">
        <route edges="775437708 917450543"/>
    </vehicle>
    <vehicle id="veh_118" type="motorcycle" depart="292">
        <route edges="136822578 1174874706"/>
    </vehicle>
    <vehicle id="veh_119" type="motorcycle" depart="297">
        <route edges="136822578 1174874706"/>
    </vehicle>
    <vehicle id="veh_36" type="car" depart="298">
        <route edges="1112806233 160192389"/>
    </vehicle>
    <vehicle id="veh_251" type="bicycle" depart="304">
        <route edges="775437708 917450543"/>
    </vehicle>
    <vehicle id="veh_134" type="car" depart="305">
        <route edges="136822578 1174874706"/>
    </vehicle>
    <vehicle id="veh_181" type="motorcycle" depart="310">
        <route edges="136822578 1174874706"/>
    </vehicle>
    <vehicle id="veh_135" type="car" depart="311">
        <route edges="136822578 1174874706"/>
    </vehicle>
    <vehicle id="veh_182" type="motorcycle" depart="316">
        <route edges="1112806233 160192389"/>
    </vehicle>
    <vehicle id="jeepney_5" type="traditional_jeepney" depart="316">
        <route edges="-4588647 -917450542 1174874706"/>
    </vehicle>
    <vehicle id="veh_252" type="bicycle" depart="317">
        <route edges="136822578 1174874706"/>
    </vehicle>
    <vehicle id="veh_183" type="motorcycle" depart="320">
        <route edges="136822578 1174874706"/>
    </vehicle>
    <vehicle id="veh_136" type="car" depart="321">
        <route edges="775437708 917450543"/>
    </vehicle>
    <vehicle id="veh_184" type="motorcycle" depart="326">
        <route edges="-4588647 -917450542 1174874706"/>
    </vehicle>
    <vehicle id="veh_137" type="car" depart="327">
        <route edges="136822578 1174874706"/>
    </vehicle>
    <vehicle id="veh_253" type="bicycle" depart="328">
        <route edges="775437708 917450543"/>
    </vehicle>
    <vehicle id="veh_138" type="car" depart="334">
        <route edges="136822578 1174874706"/>
    </vehicle>
    <vehicle id="veh_185" type="motorcycle" depart="334">
        <route edges="775437708 917450543"/>
    </vehicle>
    <vehicle id="veh_139" type="car" depart="337">
        <route edges="-4588647 -917450542 1174874706"/>
    </vehicle>
    <vehicle id="veh_140" type="car" depart="339">
        <route edges="775437708 917450543"/>
    </vehicle>
    <vehicle id="veh_186" type="motorcycle" depart="339">
        <route edges="775437708 917450543"/>
    </vehicle>
    <vehicle id="veh_254" type="bicycle" depart="339">
        <route edges="136822578 1174874706"/>
    </vehicle>
    <vehicle id="veh_141" type="car" depart="344">
        <route edges="136822578 1174874706"/>
    </vehicle>
    <vehicle id="veh_231" type="truck" depart="348">
        <route edges="136822578 1174874706"/>
    </vehicle>
    <vehicle id="jeepney_6" type="traditional_jeepney" depart="349">
        <route edges="1112806233 4588647"/>
    </vehicle>
    <vehicle id="veh_255" type="bicycle" depart="349">
        <route edges="136822578 1174874706"/>
    </vehicle>
    <vehicle id="veh_187" type="motorcycle" depart="350">
        <route edges="775437708 917450543"/>
    </vehicle>
    <vehicle id="veh_142" type="car" depart="354">
        <route edges="775437708 917450543"/>
    </vehicle>
    <vehicle id="veh_256" type="bicycle" depart="357">
        <route edges="136822578 1174874706"/>
    </vehicle>
    <vehicle id="veh_188" type="motorcycle" depart="359">
        <route edges="136822578 1174874706"/>
    </vehicle>
    <vehicle id="veh_143" type="car" depart="361">
        <route edges="775437708 917450543"/>
    </vehicle>
    <vehicle id="veh_189" type="motorcycle" depart="366">
        <route edges="775437708 917450543"/>
    </vehicle>
    <vehicle id="veh_257" type="bicycle" depart="366">
        <route edges="775437708 917450543"/>
    </vehicle>
    <vehicle id="veh_190" type="motorcycle" depart="370">
        <route edges="775437708 917450543"/>
    </vehicle>
    <vehicle id="veh_144" type="car" depart="371">
        <route edges="136822578 1174874706"/>
    </vehicle>
    <vehicle id="jeepney_7" type="traditional_jeepney" depart="371">
        <route edges="1112806233 4588647"/>
    </vehicle>
    <vehicle id="veh_258" type="bicycle" depart="373">
        <route edges="1112806233 160192389"/>
    </vehicle>
    <vehicle id="veh_191" type="motorcycle" depart="380">
        <route edges="136822578 1174874706"/>
    </vehicle>
    <vehicle id="veh_259" type="bicycle" depart="380">
        <route edges="136822578 1174874706"/>
    </vehicle>
    <vehicle id="veh_145" type="car" depart="382">
        <route edges="136822578 1174874706"/>
    </vehicle>
    <vehicle id="veh_192" type="motorcycle" depart="387">
        <route edges="775437708 917450543"/>
    </vehicle>
    <vehicle id="jeepney_8" type="traditional_jeepney" depart="387">
        <route edges="-4588647 -917450542 1174874706"/>
    </vehicle>
    <vehicle id="veh_146" type="car" depart="390">
        <route edges="775437708 917450543"/>
    </vehicle>
    <vehicle id="veh_193" type="motorcycle" depart="393">
        <route edges="136822578 1174874706"/>
    </vehicle>
    <vehicle id="veh_194" type="motorcycle" depart="393">
        <route edges="136822578 1174874706"/>
    </vehicle>
    <vehicle id="veh_232" type="truck" depart="395">
        <route edges="136822578 1174874706"/>
    </vehicle>
    <vehicle id="veh_260" type="bicycle" depart="395">
        <route edges="775437708 917450543"/>
    </vehicle>
    <vehicle id="veh_147" type="car" depart="397">
        <route edges="775437708 917450543"/>
    </vehicle>
    <vehicle id="veh_148" type="car" depart="399">
        <route edges="136822578 1174874706"/>
    </vehicle>
    <vehicle id="jeepney_9" type="traditional_jeepney" depart="400">
        <route edges="-4588647 -917450542 1174874706"/>
    </vehicle>
    <vehicle id="veh_195" type="motorcycle" depart="401">
        <route edges="775437708 917450543"/>
    </vehicle>
    <vehicle id="veh_149" type="car" depart="402">
        <route edges="136822578 1174874706"/>
    </vehicle>
    <vehicle id="veh_261" type="bicycle" depart="406">
        <route edges="775437708 917450543"/>
    </vehicle>
    <vehicle id="veh_150" type="car" depart="408">
        <route edges="775437708 917450543"/>
    </vehicle>
    <vehicle id="veh_196" type="motorcycle" depart="411">
        <route edges="1112806233 4588647"/>
    </vehicle>
    <vehicle id="veh_262" type="bicycle" depart="412">
        <route edges="775437708 917450543"/>
    </vehicle>
    <vehicle id="veh_151" type="car" depart="413">
        <route edges="1112806233 4588647"/>
    </vehicle>
    <vehicle id="veh_197" type="motorcycle" depart="414">
        <route edges="1112806233 4588647"/>
    </vehicle>
    <vehicle id="veh_152" type="car" depart="418">
        <route edges="-4588647 160192389"/>
    </vehicle>
    <vehicle id="veh_263" type="bicycle" depart="419">
        <route edges="775437708 917450543"/>
    </vehicle>
    <vehicle id="jeepney_10" type="traditional_jeepney" depart="420">
        <route edges="1112806233 4588647"/>
    </vehicle>
    <vehicle id="veh_198" type="motorcycle" depart="422">
        <route edges="775437708 917450543"/>
    </vehicle>
    <vehicle id="veh_199" type="motorcycle" depart="424">
        <route edges="775437708 917450543"/>
    </vehicle>
    <vehicle id="veh_153" type="car" depart="426">
        <route edges="136822578 1174874706"/>
    </vehicle>
    <vehicle id="veh_154" type="car" depart="429">
        <route edges="775437708 917450543"/>
    </vehicle>
    <vehicle id="veh_200" type="motorcycle" depart="430">
        <route edges="136822578 1174874706"/>
    </vehicle>
    <vehicle id="veh_155" type="car" depart="431">
        <route edges="775437708 917450543"/>
    </vehicle>
    <vehicle id="veh_264" type="bicycle" depart="433">
        <route edges="136822578 1174874706"/>
    </vehicle>
    <vehicle id="veh_156" type="car" depart="438">
        <route edges="136822578 1174874706"/>
    </vehicle>
    <vehicle id="veh_201" type="motorcycle" depart="438">
        <route edges="1112806233 160192389"/>
    </vehicle>
    <vehicle id="jeepney_11" type="traditional_jeepney" depart="438">
        <route edges="1112806233 4588647"/>
    </vehicle>
    <vehicle id="veh_265" type="bicycle" depart="439">
        <route edges="775437708 917450543"/>
    </vehicle>
    <vehicle id="veh_202" type="motorcycle" depart="443">
        <route edges="136822578 1174874706"/>
    </vehicle>
    <vehicle id="veh_266" type="bicycle" depart="445">
        <route edges="775437708 917450543"/>
    </vehicle>
    <vehicle id="veh_157" type="car" depart="446">
        <route edges="775437708 917450543"/>
    </vehicle>
    <vehicle id="veh_203" type="motorcycle" depart="446">
        <route edges="1112806233 160192389"/>
    </vehicle>
    <vehicle id="veh_158" type="car" depart="448">
        <route edges="775437708 917450543"/>
    </vehicle>
    <vehicle id="veh_204" type="motorcycle" depart="448">
        <route edges="775437708 917450543"/>
    </vehicle>
    <vehicle id="veh_205" type="motorcycle" depart="451">
        <route edges="136822578 1174874706"/>
    </vehicle>
    <vehicle id="veh_233" type="truck" depart="451">
        <route edges="136822578 1174874706"/>
    </vehicle>
    <vehicle id="veh_267" type="bicycle" depart="452">
        <route edges="136822578 1174874706"/>
    </vehicle>
    <vehicle id="veh_159" type="car" depart="454">
        <route edges="136822578 1174874706"/>
    </vehicle>
    <vehicle id="veh_206" type="motorcycle" depart="456">
        <route edges="775437708 917450543"/>
    </vehicle>
    <vehicle id="veh_207" type="motorcycle" depart="459">
        <route edges="775437708 917450543"/>
    </vehicle>
    <vehicle id="veh_268" type="bicycle" depart="461">
        <route edges="775437708 917450543"/>
    </vehicle>
    <vehicle id="veh_160" type="car" depart="462">
        <route edges="-4588647 160192389"/>
    </vehicle>
    <vehicle id="veh_208" type="motorcycle" depart="465">
        <route edges="775437708 917450543"/>
    </vehicle>
    <vehicle id="jeepney_12" type="traditional_jeepney" depart="465">
        <route edges="-4588647 -917450542 1174874706"/>
    </vehicle>
    <vehicle id="veh_161" type="car" depart="467">
        <route edges="136822578 1174874706"/>
    </vehicle>
    <vehicle id="veh_209" type="motorcycle" depart="471">
        <route edges="775437708 917450543"/>
    </vehicle>
    <vehicle id="veh_269" type="bicycle" depart="471">
        <route edges="136822578 1174874706"/>
    </vehicle>
    <vehicle id="veh_270" type="bicycle" depart="475">
        <route edges="775437708 917450543"/>
    </vehicle>
    <vehicle id="veh_162" type="car" depart="476">
        <route edges="136822578 1174874706"/>
    </vehicle>
    <vehicle id="veh_210" type="motorcycle" depart="477">
        <route edges="775437708 917450543"/>
    </vehicle>
    <vehicle id="veh_163" type="car" depart="480">
        <route edges="775437708 917450543"/>
    </vehicle>
    <vehicle id="veh_211" type="motorcycle" depart="480">
        <route edges="775437708 917450543"/>
    </vehicle>
    <vehicle id="veh_212" type="motorcycle" depart="485">
        <route edges="775437708 917450543"/>
    </vehicle>
    <vehicle id="veh_164" type="car" depart="486">
        <route edges="775437708 917450543"/>
    </vehicle>
    <vehicle id="veh_271" type="bicycle" depart="486">
        <route edges="1112806233 160192389"/>
    </vehicle>
    <vehicle id="jeepney_13" type="traditional_jeepney" depart="487">
        <route edges="1112806233 4588647"/>
    </vehicle>
    <vehicle id="veh_213" type="motorcycle" depart="489">
        <route edges="1112806233 160192389"/>
    </vehicle>
    <vehicle id="veh_214" type="motorcycle" depart="491">
        <route edges="136822578 1174874706"/>
    </vehicle>
    <vehicle id="veh_165" type="car" depart="493">
        <route edges="775437708 917450543"/>
    </vehicle>
    <vehicle id="veh_215" type="motorcycle" depart="496">
        <route edges="136822578 1174874706"/>
    </vehicle>
    <vehicle id="veh_166" type="car" depart="498">
        <route edges="1112806233 4588647"/>
    </vehicle>
    <vehicle id="veh_272" type="bicycle" depart="500">
        <route edges="136822578 1174874706"/>
    </vehicle>
    <vehicle id="veh_216" type="motorcycle" depart="501">
        <route edges="775437708 917450543"/>
    </vehicle>
    <vehicle id="veh_167" type="car" depart="502">
        <route edges="136822578 1174874706"/>
    </vehicle>
    <vehicle id="veh_217" type="motorcycle" depart="508">
        <route edges="136822578 1174874706"/>
    </vehicle>
    <vehicle id="jeepney_14" type="traditional_jeepney" depart="509">
        <route edges="1112806233 4588647"/>
    </vehicle>
    <vehicle id="veh_273" type="bicycle" depart="509">
        <route edges="775437708 917450543"/>
    </vehicle>
    <vehicle id="veh_168" type="car" depart="511">
        <route edges="775437708 917450543"/>
    </vehicle>
    <vehicle id="veh_234" type="truck" depart="515">
        <route edges="775437708 917450543"/>
    </vehicle>
    <vehicle id="veh_218" type="motorcycle" depart="518">
        <route edges="775437708 917450543"/>
    </vehicle>
    <vehicle id="veh_169" type="car" depart="519">
        <route edges="775437708 917450543"/>
    </vehicle>
    <vehicle id="veh_274" type="bicycle" depart="520">
        <route edges="136822578 1174874706"/>
    </vehicle>
    <vehicle id="veh_219" type="motorcycle" depart="524">
        <route edges="775437708 917450543"/>
    </vehicle>
    <vehicle id="veh_170" type="car" depart="525">
        <route edges="775437708 917450543"/>
    </vehicle>
    <vehicle id="veh_220" type="motorcycle" depart="527">
        <route edges="775437708 917450543"/>
    </vehicle>
    <vehicle id="veh_171" type="car" depart="529">
        <route edges="136822578 1174874706"/>
    </vehicle>
    <vehicle id="jeepney_15" type="traditional_jeepney" depart="530">
        <route edges="-4588647 -917450542 1174874706"/>
    </vehicle>
    <vehicle id="veh_275" type="bicycle" depart="530">
        <route edges="136822578 1174874706"/>
    </vehicle>
    <vehicle id="veh_221" type="motorcycle" depart="532">
        <route edges="136822578 1174874706"/>
    </vehicle>
    <vehicle id="veh_276" type="bicycle" depart="540">
        <route edges="775437708 917450543"/>
    </vehicle>
    <vehicle id="veh_172" type="car" depart="541">
        <route edges="775437708 917450543"/>
    </vehicle>
    <vehicle id="veh_222" type="motorcycle" depart="543">
        <route edges="775437708 917450543"/>
    </vehicle>