<?xml version="1.0" ?>
<routes xmlns:xsi="http://www.w3.org/2001/XMLSchema-instance" xsi:noNamespaceSchemaLocation="http://sumo.dlr.de/xsd/routes_file.xsd">
    <vehicle id="veh_31" type="motorcycle" depart="1">
        <route edges="136822578 1174874706"/>
    </vehicle>
    <vehicle id="veh_32" type="motorcycle" depart="6">
        <route edges="775437708 917450543"/>
    </vehicle>
    <vehicle id="veh_33" type="motorcycle" depart="10">
        <route edges="775437708 917450543"/>
    </vehicle>
    <vehicle id="veh_34" type="motorcycle" depart="11">
        <route edges="136822578 1174874706"/>
    </vehicle>
    <vehicle id="veh_0" type="car" depart="12">
        <route edges="775437708 917450543"/>
    </vehicle>
    <vehicle id="veh_35" type="motorcycle" depart="15">
        <route edges="136822578 1174874706"/>
    </vehicle>
    <vehicle id="veh_36" type="motorcycle" depart="15">
        <route edges="136822578 1174874706"/>
    </vehicle>
    <vehicle id="jeepney_0" type="traditional_jeepney" depart="17">
        <route edges="-4588647 -917450542 1174874706"/>
    </vehicle>
    <vehicle id="veh_37" type="motorcycle" depart="18">
        <route edges="775437708 917450543"/>
    </vehicle>
    <vehicle id="veh_1" type="car" depart="22">
        <route edges="136822578 1174874706"/>
    </vehicle>
    <vehicle id="veh_38" type="motorcycle" depart="26">
        <route edges="136822578 1174874706"/>
    </vehicle>
    <vehicle id="veh_153" type="bicycle" depart="26">
        <route edges="136822578 1174874706"/>
    </vehicle>
    <vehicle id="veh_39" type="motorcycle" depart="29">
        <route edges="775437708 917450543"/>
    </vehicle>
    <vehicle id="jeepney_1" type="traditional_jeepney" depart="30">
        <route edges="-4588647 -917450542 1174874706"/>
    </vehicle>
    <vehicle id="veh_2" type="car" depart="31">
        <route edges="136822578 1174874706"/>
    </vehicle>
    <vehicle id="veh_40" type="motorcycle" depart="31">
        <route edges="775437708 917450543"/>
    </vehicle>
    <vehicle id="veh_3" type="car" depart="36">
        <route edges="136822578 1174874706"/>
    </vehicle>
    <vehicle id="veh_41" type="motorcycle" depart="36">
        <route edges="1112806233 160192389"/>
    </vehicle>
    <vehicle id="veh_42" type="motorcycle" depart="37">
        <route edges="775437708 917450543"/>
    </vehicle>
    <vehicle id="veh_43" type="motorcycle" depart="39">
        <route edges="775437708 917450543"/>
    </vehicle>
    <vehicle id="veh_4" type="car" depart="42">
        <route edges="136822578 1174874706"/>
    </vehicle>
    <vehicle id="veh_44" type="motorcycle" depart="42">
        <route edges="775437708 917450543"/>
    </vehicle>
    <vehicle id="veh_154" type="bicycle" depart="46">
        <route edges="136822578 1174874706"/>
    </vehicle>
    <vehicle id="veh_45" type="motorcycle" depart="48">
        <route edges="775437708 917450543"/>
    </vehicle>
    <vehicle id="jeepney_2" type="traditional_jeepney" depart="48">
        <route edges="1112806233 4588647"/>
    </vehicle>
    <vehicle id="veh_46" type="motorcycle" depart="51">
        <route edges="136822578 1174874706"/>
    </vehicle>
    <vehicle id="veh_5" type="car" depart="55">
        <route edges="136822578 1174874706"/>
    </vehicle>
    <vehicle id="veh_47" type="motorcycle" depart="56">
        <route edges="136822578 1174874706"/>
    </vehicle>
    <vehicle id="jeepney_3" type="traditional_jeepney" depart="56">
        <route edges="-4588647 -917450542 1174874706"/>
    </vehicle>
    <vehicle id="veh_48" type="motorcycle" depart="61">
        <route edges="136822578 1174874706"/>
    </vehicle>
    <vehicle id="veh_49" type="motorcycle" depart="64">
        <route edges="136822578 1174874706"/>
    </vehicle>
    <vehicle id="veh_6" type="car" depart="65">
        <route edges="136822578 1174874706"/>
    </vehicle>
    <vehicle id="veh_155" type="bicycle" depart="65">
        <route edges="775437708 917450543"/>
    </vehicle>
    <vehicle id="veh_50" type="motorcycle" depart="66">
        <route edges="775437708 917450543"/>
    </vehicle>
    <vehicle id="veh_125" type="truck" depart="68">
        <route edges="775437708 917450543"/>
    </vehicle>
    <vehicle id="veh_51" type="motorcycle" depart="69">
        <route edges="136822578 1174874706"/>
    </vehicle>
    <vehicle id="jeepney_4" type="traditional_jeepney" depart="69">
        <route edges="-4588647 -917450542 1174874706"/>
    </vehicle>
    <vehicle id="veh_52" type="motorcycle" depart="76">
        <route edges="1112806233 160192389"/>
    </vehicle>
    <vehicle id="veh_7" type="car" depart="78">
        <route edges="775437708 917450543"/>
    </vehicle>
    <vehicle id="jeepney_5" type="traditional_jeepney" depart="79">
        <route edges="-4588647 -917450542 1174874706"/>
    </vehicle>
    <vehicle id="modernjeepney_0" type="modern_jeepney" depart="80">
        <route edges="1112806233 4588647"/>
    </vehicle>
    <vehicle id="veh_53" type="motorcycle" depart="84">
        <route edges="136822578 1174874706"/>
    </vehicle>
    <vehicle id="veh_8" type="car" depart="85">
        <route edges="775437708 917450543"/>
    </vehicle>
    <vehicle id="veh_54" type="motorcycle" depart="86">
        <route edges="775437708 917450543"/>
    </vehicle>
    <vehicle id="veh_156" type="bicycle" depart="87">
        <route edges="1112806233 160192389"/>
    </vehicle>
    <vehicle id="veh_55" type="motorcycle" depart="89">
        <route edges="775437708 917450543"/>
    </vehicle>
    <vehicle id="veh_56" type="motorcycle" depart="93">
        <route edges="136822578 1174874706"/>
    </vehicle>
    <vehicle id="veh_57" type="motorcycle" depart="95">
        <route edges="136822578 1174874706"/>
    </vehicle>
    <vehicle id="veh_58" type="motorcycle" depart="98">
        <route edges="775437708 917450543"/>
    </vehicle>
    <vehicle id="veh_9" type="car" depart="99">
        <route edges="775437708 917450543"/>
    </vehicle>
    <vehicle id="jeepney_6" type="traditional_jeepney" depart="99">
        <route edges="1112806233 4588647"/>
    </vehicle>
    <vehicle id="veh_59" type="motorcycle" depart="102">
        <route edges="136822578 1174874706"/>
    </vehicle>
    <vehicle id="veh_157" type="bicycle" depart="103">
        <route edges="136822578 1174874706"/>
    </vehicle>
    <vehicle id="veh_60" type="motorcycle" depart="106">
        <route edges="1112806233 4588647"/>
    </vehicle>
    <vehicle id="veh_61" type="motorcycle" depart="111">
        <route edges="136822578 1174874706"/>
    </vehicle>
    <vehicle id="veh_10" type="car" depart="112">
        <route edges="775437708 917450543"/>
    </vehicle>
    <vehicle id="jeepney_7" type="traditional_jeepney" depart="113">
        <route edges="-4588647 -917450542 1174874706"/>
    </vehicle>
    <vehicle id="veh_11" type="car" depart="115">
        <route edges="775437708 917450543"/>
    </vehicle>
    <vehicle id="veh_62" type="motorcycle" depart="115">
        <route edges="136822578 1174874706"/>
    </vehicle>
    <vehicle id="veh_63" type="motorcycle" depart="117">
        <route edges="1112806233 160192389"/>
    </vehicle>
    <vehicle id="veh_64" type="motorcycle" depart="118">
        <route edges="775437708 917450543"/>
    </vehicle>
    <vehicle id="jeepney_8" type="traditional_jeepney" depart="118">
        <route edges="1112806233 4588647"/>
    </vehicle>
    <vehicle id="veh_65" type="motorcycle" depart="122">
        <route edges="775437708 917450543"/>
    </vehicle>
    <vehicle id="veh_158" type="bicycle" depart="122">
        <route edges="775437708 917450543"/>
    </vehicle>
    <vehicle id="veh_66" type="motorcycle" depart="125">
        <route edges="775437708 917450543"/>
    </vehicle>
    <vehicle id="veh_12" type="car" depart="127">
        <route edges="775437708 917450543"/>
    </vehicle>
    <vehicle id="veh_67" type="motorcycle" depart="128">
        <route edges="1112806233 4588647"/>
    </vehicle>
    <vehicle id="veh_68" type="motorcycle" depart="134">
        <route edges="775437708 917450543"/>
    </vehicle>
    <vehicle id="veh_69" type="motorcycle" depart="135">
        <route edges="136822578 1174874706"/>
    </vehicle>
    <vehicle id="veh_13" type="car" depart="136">
        <route edges="775437708 917450543"/>
    </vehicle>
    <vehicle id="veh_70" type="motorcycle" depart="137">
        <route edges="136822578 1174874706"/>
    </vehicle>
    <vehicle id="veh_126" type="truck" depart="137">
        <route edges="775437708 917450543"/>
    </vehicle>
    <vehicle id="jeepney_9" type="traditional_jeepney" depart="137">
        <route edges="1112806233 4588647"/>
    </vehicle>
    <vehicle id="veh_71" type="motorcycle" depart="139">
        <route edges="136822578 1174874706"/>
    </vehicle>
    <vehicle id="veh_72" type="motorcycle" depart="140">
        <route edges="136822578 1174874706"/>
    </vehicle>
    <vehicle id="veh_14" type="car" depart="142">
        <route edges="775437708 917450543"/>
    </vehicle>
    <vehicle id="modernjeepney_1" type="modern_jeepney" depart="145">
        <route edges="1112806233 4588647"/>
    </vehicle>
    <vehicle id="veh_73" type="motorcycle" depart="147">
        <route edges="136822578 1174874706"/>
    </vehicle>
    <vehicle id="veh_159" type="bicycle" depart="148">
        <route edges="136822578 1174874706"/>
    </vehicle>
    <vehicle id="jeepney_10" type="traditional_jeepney" depart="149">
        <route edges="-4588647 -917450542 1174874706"/>
    </vehicle>
    <vehicle id="veh_15" type="car" depart="150">
        <route edges="775437708 917450543"/>
    </vehicle>
    <vehicle id="veh_74" type="motorcycle" depart="150">
        <route edges="775437708 917450543"/>
    </vehicle>
    <vehicle id="veh_75" type="motorcycle" depart="152">
        <route edges="136822578 1174874706"/>
    </vehicle>
    <vehicle id="veh_76" type="motorcycle" depart="154">
        <route edges="136822578 1174874706"/>
    </vehicle>
    <vehicle id="veh_77" type="motorcycle" depart="156">
        <route edges="775437708 917450543"/>
    </vehicle>
    <vehicle id="veh_16" type="car" depart="159">
        <route edges="775437708 917450543"/>
    </vehicle>
    <vehicle id="veh_78" type="motorcycle" depart="161">
        <route edges="775437708 917450543"/>
    </vehicle>
    <vehicle id="jeepney_11" type="traditional_jeepney" depart="163">
        <route edges="-4588647 -917450542 1174874706"/>
    </vehicle>
    <vehicle id="veh_79" type="motorcycle" depart="165">
        <route edges="136822578 1174874706"/>
    </vehicle>
    <vehicle id="veh_160" type="bicycle" depart="167">
        <route edges="775437708 917450543"/>
    </vehicle>
    <vehicle id="veh_17" type="car" depart="168">
        <route edges="136822578 1174874706"/>
    </vehicle>
    <vehicle id="veh_80" type="motorcycle" depart="170">
        <route edges="775437708 917450543"/>
    </vehicle>
    <vehicle id="veh_81" type="motorcycle" depart="173">
        <route edges="136822578 1174874706"/>
    </vehicle>
    <vehicle id="veh_82" type="motorcycle" depart="173">
        <route edges="775437708 917450543"/>
    </vehicle>
    <vehicle id="veh_83" type="motorcycle" depart="176">
        <route edges="775437708 917450543"/>
    </vehicle>
    <vehicle id="jeepney_12" type="traditional_jeepney" depart="176">
        <route edges="-4588647 -917450542 1174874706"/>
    </vehicle>
    <vehicle id="veh_18" type="car" depart="179">
        <route edges="136822578 1174874706"/>
    </vehicle>
    <vehicle id="veh_84" type="motorcycle" depart="179">
        <route edges="775437708 917450543"/>
    </vehicle>
    <vehicle id="veh_85" type="motorcycle" depart="181">
        <route edges="1112806233 160192389"/>
    </vehicle>
    <vehicle id="veh_86" type="motorcycle" depart="182">
        <route edges="775437708 917450543"/>
    </vehicle>
    <vehicle id="veh_87" type="motorcycle" depart="184">
        <route edges="136822578 1174874706"/>
    </vehicle>
    <vehicle id="veh_19" type="car" depart="186">
        <route edges="-4588647 160192389"/>
    </vehicle>
    <vehicle id="veh_88" type="motorcycle" depart="186">
        <route edges="136822578 1174874706"/>
    </vehicle>
    <vehicle id="veh_89" type="motorcycle" depart="190">
        <route edges="775437708 917450543"/>
    </vehicle>
    <vehicle id="veh_90" type="motorcycle" depart="190">
        <route edges="1112806233 160192389"/>
    </vehicle>
    <vehicle id="jeepney_13" type="traditional_jeepney" depart="193">
        <route edges="1112806233 4588647"/>
    </vehicle>
    <vehicle id="veh_20" type="car" depart="194">
        <route edges="775437708 917450543"/>
    </vehicle>
    <vehicle id="veh_91" type="motorcycle" depart="194">
        <route edges="775437708 917450543"/>
    </vehicle>
    <vehicle id="veh_92" type="motorcycle" depart="197">
        <route edges="136822578 1174874706"/>
    </vehicle>
    <vehicle id="veh_161" type="bicycle" depart="197">
        <route edges="136822578 1174874706"/>
    </vehicle>
    <vehicle id="veh_21" type="car" depart="202">
        <route edges="775437708 917450543"/>
    </vehicle>
    <vehicle id="veh_93" type="motorcycle" depart="202">
        <route edges="136822578 1174874706"/>
    </vehicle>
    <vehicle id="veh_94" type="motorcycle" depart="204">
        <route edges="775437708 917450543"/>
    </vehicle>
    <vehicle id="veh_22" type="car" depart="207">
        <route edges="775437708 917450543"/>
    </vehicle>
    <vehicle id="veh_95" type="motorcycle" depart="207">
        <route edges="136822578 1174874706"/>
    </vehicle>
    <vehicle id="jeepney_14" type="traditional_jeepney" depart="208">
        <route edges="-4588647 -917450542 1174874706"/>
    </vehicle>
    <vehicle id="veh_96" type="motorcycle" depart="212">
        <route edges="136822578 1174874706"/>
    </vehicle>
    <vehicle id="veh_97" type="motorcycle" depart="214">
        <route edges="136822578 1174874706"/>
    </vehicle>
    <vehicle id="veh_127" type="truck" depart="214">
        <route edges="775437708 917450543"/>
    </vehicle>
    <vehicle id="veh_98" type="motorcycle" depart="217">
        <route edges="-4588647 160192389"/>
    </vehicle>
    <vehicle id="jeepney_15" type="traditional_jeepney" depart="217">
        <route edges="1112806233 4588647"/>
    </vehicle>
    <vehicle id="veh_23" type="car" depart="219">
        <route edges="1112806233 160192389"/>
    </vehicle>
    <vehicle id="veh_99" type="motorcycle" depart="219">
        <route edges="136822578 1174874706"/>
    </vehicle>
    <vehicle id="veh_162" type="bicycle" depart="219">
        <route edges="775437708 917450543"/>
    </vehicle>
    <vehicle id="modernjeepney_2" type="modern_jeepney" depart="222">
        <route edges="1112806233 4588647"/>
    </vehicle>
    <vehicle id="veh_100" type="motorcycle" depart="224">
        <route edges="775437708 917450543"/>
    </vehicle>
    <vehicle id="veh_101" type="motorcycle" depart="227">
        <route edges="775437708 917450543"/>
    </vehicle>
    <vehicle id="veh_102" type="motorcycle" depart="229">
        <route edges="1112806233 160192389"/>
    </vehicle>
    <vehicle id="veh_103" type="motorcycle" depart="230">
        <route edges="775437708 917450543"/>
    </vehicle>
    <vehicle id="veh_104" type="motorcycle" depart="234">
        <route edges="775437708 917450543"/>
    </vehicle>
    <vehicle id="veh_163" type="bicycle" depart="235">
        <route edges="775437708 917450543"/>
    </vehicle>
    <vehicle id="veh_105" type="motorcycle" depart="236">
        <route edges="775437708 917450543"/>
    </vehicle>
    <vehicle id="veh_106" type="motorcycle" depart="236">
        <route edges="136822578 1174874706"/>
    </vehicle>
    <vehicle id="jeepney_16" type="traditional_jeepney" depart="238">
        <route edges="1112806233 4588647"/>
    </vehicle>
    <vehicle id="veh_24" type="car" depart="239">
        <route edges="136822578 1174874706"/>
    </vehicle>
    <vehicle id="veh_107" type="motorcycle" depart="241">
        <route edges="-4588647 -917450542 1174874706"/>
    </vehicle>
    <vehicle id="veh_108" type="motorcycle" depart="242">
        <route edges="136822578 1174874706"/>
    </vehicle>
    <vehicle id="veh_25" type="car" depart="243">
        <route edges="775437708 917450543"/>
    </vehicle>
    <vehicle id="veh_109" type="motorcycle" depart="248">
        <route edges="136822578 1174874706"/>
    </vehicle>
    <vehicle id="jeepney_17" type="traditional_jeepney" depart="252">
        <route edges="1112806233 4588647"/>
    </vehicle>
    <vehicle id="veh_164" type="bicycle" depart="252">
        <route edges="775437708 917450543"/>
    </vehicle>
    <vehicle id="veh_26" type="car" depart="254">
        <route edges="775437708 917450543"/>
    </vehicle>
    <vehicle id="veh_110" type="motorcycle" depart="254">
        <route edges="136822578 1174874706"/>
    </vehicle>
    <vehicle id="veh_111" type="motorcycle" depart="256">
        <route edges="775437708 917450543"/>
    </vehicle>
    <vehicle id="veh_112" type="motorcycle" depart="260">
        <route edges="775437708 917450543"/>
    </vehicle>
    <vehicle id="veh_113" type="motorcycle" depart="262">
        <route edges="1112806233 4588647"/>
    </vehicle>
    <vehicle id="veh_165" type="bicycle" depart="265">
        <route edges="775437708 917450543"/>
    </vehicle>
    <vehicle id="veh_114" type="motorcycle" depart="266">
        <route edges="775437708 917450543"/>
    </vehicle>
    <vehicle id="veh_115" type="motorcycle" depart="269">
        <route edges="775437708 917450543"/>
    </vehicle>
    <vehicle id="jeepney_18" type="traditional_jeepney" depart="269">
        <route edges="-4588647 -917450542 1174874706"/>
    </vehicle>
    <vehicle id="veh_27" type="car" depart="272">
        <route edges="136822578 1174874706"/>
    </vehicle>
    <vehicle id="veh_116" type="motorcycle" depart="272">
        <route edges="1112806233 4588647"/>
    </vehicle>
    <vehicle id="veh_117" type="motorcycle" depart="276">
        <route edges="136822578 1174874706"/>
    </vehicle>
    <vehicle id="veh_28" type="car" depart="280">
        <route edges="136822578 1174874706"/>
    </vehicle>
    <vehicle id="veh_118" type="motorcycle" depart="280">
        <route edges="136822578 1174874706"/>
    </vehicle>
    <vehicle id="veh_119" type="motorcycle" depart="282">
        <route edges="136822578 1174874706"/>
    </vehicle>
    <vehicle id="veh_120" type="motorcycle" depart="285">
        <route edges="136822578 1174874706"/>
    </vehicle>
    <vehicle id="veh_29" type="car" depart="288">
        <route edges="1112806233 4588647"/>
    </vehicle>
    <vehicle id="jeepney_19" type="traditional_jeepney" depart="288">
        <route edges="1112806233 4588647"/>
    </vehicle>
    <vehicle id="modernjeepney_3" type="modern_jeepney" depart="288">
        <route edges="1112806233 4588647"/>
    </vehicle>
    <vehicle id="veh_121" type="motorcycle" depart="289">
        <route edges="775437708 917450543"/>
    </vehicle>
    <vehicle id="veh_166" type="bicycle" depart="289">
        <route edges="136822578 1174874706"/>
    </vehicle>
    <vehicle id="veh_128" type="truck" depart="292">
        <route edges="136822578 1174874706"/>
    </vehicle>
    <vehicle id="veh_122" type="motorcycle" depart="295">
        <route edges="775437708 917450543"/>
    </vehicle>
    <vehicle id="veh_123" type="motorcycle" depart="296">
        <route edges="1112806233 160192389"/>
    </vehicle>
    <vehicle id="veh_124" type="motorcycle" depart="297">
        <route edges="1112806233 160192389"/>
    </vehicle>
    <vehicle id="veh_30" type="car" depart="298">
        <route edges="136822578 1174874706"/>
    </vehicle>
    <vehicle id="veh_167" type="car" depart="304">
        <route edges="136822578 1174874706"/>
    </vehicle>
    <vehicle id="veh_224" type="motorcycle" depart="304">
        <route edges="1112806233 4588647"/>
    </vehicle>
    <vehicle id="veh_225" type="motorcycle" depart="306">
        <route edges="136822578 1174874706"/>
    </vehicle>
    <vehicle id="veh_168" type="car" depart="308">
        <route edges="775437708 917450543"/>
    </vehicle>
    <vehicle id="veh_169" type="car" depart="314">
        <route edges="136822578 1174874706"/>
    </vehicle>
    <vehicle id="veh_226" type="motorcycle" depart="314">
        <route edges="136822578 1174874706"/>
    </vehicle>
    <vehicle id="veh_227" type="motorcycle" depart="315">
        <route edges="136822578 1174874706"/>
    </vehicle>
    <vehicle id="veh_170" type="car" depart="317">
        <route edges="775437708 917450543"/>
    </vehicle>
    <vehicle id="jeepney_20" type="traditional_jeepney" depart="317">
        <route edges="-4588647 -917450542 1174874706"/>
    </vehicle>
    <vehicle id="veh_228" type="motorcycle" depart="318">
        <route edges="775437708 917450543"/>
    </vehicle>
    <vehicle id="veh_229" type="motorcycle" depart="319">
        <route edges="775437708 917450543"/>
    </vehicle>
    <vehicle id="veh_230" type="motorcycle" depart="322">
        <route edges="136822578 1174874706"/>
    </vehicle>
    <vehicle id="veh_171" type="car" depart="325">
        <route edges="1112806233 160192389"/>
    </vehicle>
    <vehicle id="veh_231" type="motorcycle" depart="325">
        <route edges="775437708 917450543"/>
    </vehicle>
    <vehicle id="veh_172" type="car" depart="329">
        <route edges="775437708 917450543"/>
    </vehicle>
    <vehicle id="jeepney_21" type="traditional_jeepney" depart="330">
        <route edges="-4588647 -917450542 1174874706"/>
    </vehicle>
    <vehicle id="veh_232" type="motorcycle" depart="332">
        <route edges="775437708 917450543"/>
    </vehicle>
    <vehicle id="veh_173" type="car" depart="333">
        <route edges="775437708 917450543"/>
    </vehicle>
    <vehicle id="veh_325" type="bicycle" depart="333">
        <route edges="1112806233 160192389"/>
    </vehicle>
    <vehicle id="veh_174" type="car" depart="337">
        <route edges="1112806233 4588647"/>
    </vehicle>
    <vehicle id="veh_233" type="motorcycle" depart="337">
        <route edges="136822578 1174874706"/>
    </vehicle>
    <vehicle id="veh_234" type="motorcycle" depart="340">
        <route edges="136822578 1174874706"/>
    </vehicle>
    <vehicle id="veh_235" type="motorcycle" depart="341">
        <route edges="775437708 917450543"/>
    </vehicle>
    <vehicle id="veh_175" type="car" depart="342">
        <route edges="775437708 917450543"/>
    </vehicle>
    <vehicle id="veh_236" type="motorcycle" depart="344">
        <route edges="775437708 917450543"/>
    </vehicle>
    <vehicle id="veh_237" type="motorcycle" depart="347">
        <route edges="775437708 917450543"/>
    </vehicle>
    <vehicle id="veh_176" type="car" depart="349">
        <route edges="136822578 1174874706"/>
    </vehicle>
    <vehicle id="veh_238" type="motorcycle" depart="351">
        <route edges="136822578 1174874706"/>
    </vehicle>
    <vehicle id="veh_177" type="car" depart="354">
        <route edges="775437708 917450543"/>
    </vehicle>
    <vehicle id="jeepney_22" type="traditional_jeepney" depart="355">
        <route edges="-4588647 -917450542 1174874706"/>
    </vehicle>
    <vehicle id="modernjeepney_4" type="modern_jeepney" depart="357">
        <route edges="1112806233 4588647"/>
    </vehicle>
    <vehicle id="veh_239" type="motorcycle" depart="358">
        <route edges="775437708 917450543"/>
    </vehicle>
    <vehicle id="veh_178" type="car" depart="359">
        <route edges="136822578 1174874706"/>
    </vehicle>
    <vehicle id="veh_240" type="motorcycle" depart="363">
        <route edges="136822578 1174874706"/>
    </vehicle>
    <vehicle id="veh_179" type="car" depart="368">
        <route edges="136822578 1174874706"/>
    </vehicle>
    <vehicle id="veh_241" type="motorcycle" depart="370">
        <route edges="775437708 917450543"/>
    </vehicle>
    <vehicle id="veh_180" type="car" depart="371">
        <route edges="1112806233 160192389"/>
    </vehicle>
    <vehicle id="veh_242" type="motorcycle" depart="374">
        <route edges="775437708 917450543"/>
    </vehicle>
    <vehicle id="jeepney_23" type="traditional_jeepney" depart="374">
        <route edges="-4588647 -917450542 1174874706"/>
    </vehicle>
    <vehicle id="veh_243" type="motorcycle" depart="375">
        <route edges="-4588647 160192389"/>
    </vehicle>
    <vehicle id="veh_244" type="motorcycle" depart="379">
        <route edges="136822578 1174874706"/>
    </vehicle>
    <vehicle id="veh_326" type="bicycle" depart="380">
        <route edges="136822578 1174874706"/>
    </vehicle>
    <vehicle id="veh_181" type="car" depart="381">
        <route edges="136822578 1174874706"/>
    </vehicle>
    <vehicle id="veh_245" type="motorcycle" depart="384">
        <route edges="136822578 1174874706"/>
    </vehicle>
    <vehicle id="veh_182" type="car" depart="386">
        <route edges="775437708 917450543"/>
    </vehicle>
    <vehicle id="veh_183" type="car" depart="388">
        <route edges="136822578 1174874706"/>
    </vehicle>
    <vehicle id="veh_246" type="motorcycle" depart="390">
        <route edges="136822578 1174874706"/>
    </vehicle>
    <vehicle id="veh_184" type="car" depart="393">
        <route edges="136822578 1174874706"/>
    </vehicle>
    <vehicle id="jeepney_24" type="traditional_jeepney" depart="393">
        <route edges="1112806233 4588647"/>
    </vehicle>
    <vehicle id="veh_247" type="motorcycle" depart="394">
        <route edges="1112806233 4588647"/>
    </vehicle>
    <vehicle id="veh_185" type="car" depart="395">
        <route edges="136822578 1174874706"/>
    </vehicle>
    <vehicle id="veh_248" type="motorcycle" depart="397">
        <route edges="775437708 917450543"/>
    </vehicle>
    <vehicle id="veh_249" type="motorcycle" depart="398">
        <route edges="1112806233 4588647"/>
    </vehicle>
    <vehicle id="veh_186" type="car" depart="400">
        <route edges="136822578 1174874706"/>
    </vehicle>
    <vehicle id="veh_250" type="motorcycle" depart="401">
        <route edges="775437708 917450543"/>
    </vehicle>
    <vehicle id="veh_251" type="motorcycle" depart="404">
        <route edges="775437708 917450543"/>
    </vehicle>
    <vehicle id="veh_252" type="motorcycle" depart="404">
        <route edges="-4588647 -917450542 1174874706"/>
    </vehicle>
    <vehicle id="veh_253" type="motorcycle" depart="407">
        <route edges="775437708 917450543"/>
    </vehicle>
    <vehicle id="veh_187" type="car" depart="410">
        <route edges="775437708 917450543"/>
    </vehicle>
    <vehicle id="veh_188" type="car" depart="414">
        <route edges="136822578 1174874706"/>
    </vehicle>
    <vehicle id="veh_254" type="motorcycle" depart="414">
        <route edges="775437708 917450543"/>
    </vehicle>
    <vehicle id="veh_255" type="motorcycle" depart="415">
        <route edges="136822578 1174874706"/>
    </vehicle>
    <vehicle id="jeepney_25" type="traditional_jeepney" depart="415">
        <route edges="-4588647 -917450542 1174874706"/>
    </vehicle>
    <vehicle id="modernjeepney_5" type="modern_jeepney" depart="417">
        <route edges="-4588647 -917450542 1174874706"/>
    </vehicle>
    <vehicle id="veh_189" type="car" depart="421">
        <route edges="136822578 1174874706"/>
    </vehicle>
    <vehicle id="veh_256" type="motorcycle" depart="423">
        <route edges="136822578 1174874706"/>
    </vehicle>
    <vehicle id="veh_257" type="motorcycle" depart="424">
        <route edges="136822578 1174874706"/>
    </vehicle>
    <vehicle id="veh_190" type="car" depart="425">
        <route edges="-4588647 -917450542 1174874706"/>
    </vehicle>
    <vehicle id="veh_258" type="motorcycle" depart="427">
        <route edges="775437708 917450543"/>
    </vehicle>
    <vehicle id="veh_327" type="bicycle" depart="427">
        <route edges="136822578 1174874706"/>
    </vehicle>
    <vehicle id="veh_259" type="motorcycle" depart="430">
        <route edges="775437708 917450543"/>
    </vehicle>
    <vehicle id="veh_260" type="motorcycle" depart="433">
        <route edges="136822578 1174874706"/>
    </vehicle>
    <vehicle id="jeepney_26" type="traditional_jeepney" depart="433">
        <route edges="1112806233 4588647"/>
    </vehicle>
    <vehicle id="veh_191" type="car" depart="434">
        <route edges="136822578 1174874706"/>
    </vehicle>
    <vehicle id="veh_261" type="motorcycle" depart="438">
        <route edges="1112806233 160192389"/>
    </vehicle>
    <vehicle id="veh_192" type="car" depart="439">
        <route edges="136822578 1174874706"/>
    </vehicle>
    <vehicle id="veh_262" type="motorcycle" depart="439">
        <route edges="136822578 1174874706"/>
    </vehicle>
    <vehicle id="veh_193" type="car" depart="445">
        <route edges="775437708 917450543"/>
    </vehicle>
    <vehicle id="veh_263" type="motorcycle" depart="445">
        <route edges="775437708 917450543"/>
    </vehicle>
    <vehicle id="veh_264" type="motorcycle" depart="450">
        <route edges="136822578 1174874706"/>
    </vehicle>
    <vehicle id="jeepney_27" type="traditional_jeepney" depart="451">
        <route edges="-4588647 -917450542 1174874706"/>
    </vehicle>
    <vehicle id="veh_194" type="car" depart="452">
        <route edges="775437708 917450543"/>
    </vehicle>
    <vehicle id="veh_265" type="motorcycle" depart="454">
        <route edges="775437708 917450543"/>
    </vehicle>
    <vehicle id="veh_266" type="motorcycle" depart="457">
        <route edges="775437708 917450543"/>
    </vehicle>
    <vehicle id="veh_195" type="car" depart="458">
        <route edges="136822578 1174874706"/>
    </vehicle>