<?xml version="1.0" ?>
<routes xmlns:xsi="http://www.w3.org/2001/XMLSchema-instance" xsi:noNamespaceSchemaLocation="http://sumo.dlr.de/xsd/routes_file.xsd">
    <vehicle id="veh_0" type="car" depart="3">
        <route edges="775437708 917450543"/>
    </vehicle>
    <vehicle id="veh_42" type="motorcycle" depart="7">
        <route edges="136822578 1174874706"/>
    </vehicle>
    <vehicle id="veh_1" type="car" depart="11">
        <route edges="136822578 1174874706"/>
    </vehicle>
    <vehicle id="veh_43" type="motorcycle" depart="12">
        <route edges="136822578 1174874706"/>
    </vehicle>
    <vehicle id="jeepney_0" type="traditional_jeepney" depart="16">
        <route edges="1112806233 4588647"/>
    </vehicle>
    <vehicle id="veh_2" type="car" depart="17">
        <route edges="775437708 917450543"/>
    </vehicle>
    <vehicle id="veh_44" type="motorcycle" depart="19">
        <route edges="775437708 917450543"/>
    </vehicle>
    <vehicle id="veh_45" type="motorcycle" depart="21">
        <route edges="136822578 1174874706"/>
    </vehicle>
    <vehicle id="veh_3" type="car" depart="27">
        <route edges="775437708 917450543"/>
    </vehicle>
    <vehicle id="veh_46" type="motorcycle" depart="27">
        <route edges="775437708 917450543"/>
    </vehicle>
    <vehicle id="veh_47" type="motorcycle" depart="32">
        <route edges="136822578 1174874706"/>
    </vehicle>
    <vehicle id="veh_48" type="motorcycle" depart="35">
        <route edges="775437708 917450543"/>
    </vehicle>
    <vehicle id="jeepney_1" type="traditional_jeepney" depart="35">
        <route edges="-4588647 -917450542 1174874706"/>
    </vehicle>
    <vehicle id="veh_49" type="motorcycle" depart="39">
        <route edges="136822578 1174874706"/>
    </vehicle>
    <vehicle id="veh_4" type="car" depart="41">
        <route edges="136822578 1174874706"/>
    </vehicle>
    <vehicle id="veh_50" type="motorcycle" depart="45">
        <route edges="136822578 1174874706"/>
    </vehicle>
    <vehicle id="veh_51" type="motorcycle" depart="47">
        <route edges="136822578 1174874706"/>
    </vehicle>
    <vehicle id="veh_52" type="motorcycle" depart="47">
        <route edges="775437708 917450543"/>
    </vehicle>
    <vehicle id="jeepney_2" type="traditional_jeepney" depart="48">
        <route edges="-4588647 -917450542 1174874706"/>
    </vehicle>
    <vehicle id="veh_5" type="car" depart="51">
        <route edges="775437708 917450543"/>
    </vehicle>
    <vehicle id="veh_53" type="motorcycle" depart="52">
        <route edges="775437708 917450543"/>
    </vehicle>
    <vehicle id="veh_137" type="bicycle" depart="56">
        <route edges="775437708 917450543"/>
    </vehicle>
    <vehicle id="veh_6" type="car" depart="57">
        <route edges="136822578 1174874706"/>
    </vehicle>
    <vehicle id="veh_54" type="motorcycle" depart="59">
        <route edges="775437708 917450543"/>
    </vehicle>
    <vehicle id="jeepney_3" type="traditional_jeepney" depart="60">
        <route edges="-4588647 -917450542 1174874706"/>
    </vehicle>
    <vehicle id="veh_55" type="motorcycle" depart="62">
        <route edges="1112806233 160192389"/>
    </vehicle>
    <vehicle id="veh_56" type="motorcycle" depart="64">
        <route edges="775437708 917450543"/>
    </vehicle>
    <vehicle id="veh_7" type="car" depart="65">
        <route edges="775437708 917450543"/>
    </vehicle>
    <vehicle id="veh_57" type="motorcycle" depart="67">
        <route edges="775437708 917450543"/>
    </vehicle>
    <vehicle id="veh_8" type="car" depart="69">
        <route edges="775437708 917450543"/>
    </vehicle>
    <vehicle id="jeepney_4" type="traditional_jeepney" depart="73">
        <route edges="-4588647 -917450542 1174874706"/>
    </vehicle>
    <vehicle id="veh_58" type="motorcycle" depart="75">
        <route edges="136822578 1174874706"/>
    </vehicle>
    <vehicle id="veh_59" type="motorcycle" depart="77">
        <route edges="775437708 917450543"/>
    </vehicle>
    <vehicle id="veh_9" type="car" depart="80">
        <route edges="775437708 917450543"/>
    </vehicle>
    <vehicle id="veh_60" type="motorcycle" depart="85">
        <route edges="1112806233 4588647"/>
    </vehicle>
    <vehicle id="veh_61" type="motorcycle" depart="85">
        <route edges="136822578 1174874706"/>
    </vehicle>
    <vehicle id="veh_62" type="motorcycle" depart="85">
        <route edges="136822578 1174874706"/>
    </vehicle>
    <vehicle id="veh_10" type="car" depart="87">
        <route edges="136822578 1174874706"/>
    </vehicle>
    <vehicle id="veh_63" type="motorcycle" depart="88">
        <route edges="775437708 917450543"/>
    </vehicle>
    <vehicle id="jeepney_5" type="traditional_jeepney" depart="90">
        <route edges="-4588647 -917450542 1174874706"/>
    </vehicle>
    <vehicle id="veh_64" type="motorcycle" depart="93">
        <route edges="775437708 917450543"/>
    </vehicle>
    <vehicle id="veh_11" type="car" depart="96">
        <route edges="775437708 917450543"/>
    </vehicle>
    <vehicle id="veh_65" type="motorcycle" depart="96">
        <route edges="775437708 917450543"/>
    </vehicle>
    <vehicle id="veh_138" type="bicycle" depart="97">
        <route edges="775437708 917450543"/>
    </vehicle>
    <vehicle id="veh_66" type="motorcycle" depart="100">
        <route edges="775437708 917450543"/>
    </vehicle>
    <vehicle id="veh_67" type="motorcycle" depart="102">
        <route edges="136822578 1174874706"/>
    </vehicle>
    <vehicle id="veh_113" type="truck" depart="102">
        <route edges="136822578 1174874706"/>
    </vehicle>
    <vehicle id="jeepney_6" type="traditional_jeepney" depart="102">
        <route edges="-4588647 -917450542 1174874706"/>
    </vehicle>
    <vehicle id="veh_12" type="car" depart="106">
        <route edges="1112806233 4588647"/>
    </vehicle>
    <vehicle id="veh_68" type="motorcycle" depart="109">
        <route edges="775437708 917450543"/>
    </vehicle>
    <vehicle id="veh_13" type="car" depart="113">
        <route edges="136822578 1174874706"/>
    </vehicle>
    <vehicle id="veh_69" type="motorcycle" depart="113">
        <route edges="775437708 917450543"/>
    </vehicle>
    <vehicle id="veh_70" type="motorcycle" depart="120">
        <route edges="775437708 917450543"/>
    </vehicle>
    <vehicle id="veh_71" type="motorcycle" depart="121">
        <route edges="775437708 917450543"/>
    </vehicle>
    <vehicle id="jeepney_7" type="traditional_jeepney" depart="122">
        <route edges="-4588647 -917450542 1174874706"/>
    </vehicle>
    <vehicle id="veh_14" type="car" depart="123">
        <route edges="775437708 917450543"/>
    </vehicle>
    <vehicle id="veh_72" type="motorcycle" depart="128">
        <route edges="775437708 917450543"/>
    </vehicle>
    <vehicle id="jeepney_8" type="traditional_jeepney" depart="130">
        <route edges="-4588647 -917450542 1174874706"/>
    </vehicle>
    <vehicle id="veh_15" type="car" depart="131">
        <route edges="775437708 917450543"/>
    </vehicle>
    <vehicle id="veh_16" type="car" depart="131">
        <route edges="1112806233 4588647"/>
    </vehicle>
    <vehicle id="veh_73" type="motorcycle" depart="133">
        <route edges="775437708 917450543"/>
    </vehicle>
    <vehicle id="veh_17" type="car" depart="135">
        <route edges="775437708 917450543"/>
    </vehicle>
    <vehicle id="veh_74" type="motorcycle" depart="137">
        <route edges="775437708 917450543"/>
    </vehicle>
    <vehicle id="jeepney_9" type="traditional_jeepney" depart="141">
        <route edges="1112806233 4588647"/>
    </vehicle>
    <vehicle id="veh_75" type="motorcycle" depart="142">
        <route edges="775437708 917450543"/>
    </vehicle>
    <vehicle id="veh_18" type="car" depart="143">
        <route edges="136822578 1174874706"/>
    </vehicle>
    <vehicle id="veh_19" type="car" depart="146">
        <route edges="136822578 1174874706"/>
    </vehicle>
    <vehicle id="veh_76" type="motorcycle" depart="148">
        <route edges="136822578 1174874706"/>
    </vehicle>
    <vehicle id="veh_77" type="motorcycle" depart="149">
        <route edges="136822578 1174874706"/>
    </vehicle>
    <vehicle id="veh_78" type="motorcycle" depart="150">
        <route edges="775437708 917450543"/>
    </vehicle>
    <vehicle id="veh_79" type="motorcycle" depart="151">
        <route edges="136822578 1174874706"/>
    </vehicle>
    <vehicle id="veh_20" type="car" depart="153">
        <route edges="775437708 917450543"/>
    </vehicle>
    <vehicle id="veh_139" type="bicycle" depart="154">
        <route edges="1112806233 160192389"/>
    </vehicle>
    <vehicle id="veh_80" type="motorcycle" depart="156">
        <route edges="-4588647 -917450542 1174874706"/>
    </vehicle>
    <vehicle id="jeepney_10" type="traditional_jeepney" depart="156">
        <route edges="-4588647 -917450542 1174874706"/>
    </vehicle>
    <vehicle id="veh_21" type="car" depart="159">
        <route edges="1112806233 160192389"/>
    </vehicle>
    <vehicle id="veh_81" type="motorcycle" depart="159">
        <route edges="775437708 917450543"/>
    </vehicle>
    <vehicle id="veh_22" type="car" depart="166">
        <route edges="136822578 1174874706"/>
    </vehicle>
    <vehicle id="veh_82" type="motorcycle" depart="168">
        <route edges="136822578 1174874706"/>
    </vehicle>
    <vehicle id="jeepney_11" type="traditional_jeepney" depart="171">
        <route edges="-4588647 -917450542 1174874706"/>
    </vehicle>
    <vehicle id="veh_23" type="car" depart="172">
        <route edges="136822578 1174874706"/>
    </vehicle>
    <vehicle id="veh_83" type="motorcycle" depart="172">
        <route edges="775437708 917450543"/>
    </vehicle>
    <vehicle id="veh_84" type="motorcycle" depart="176">
        <route edges="775437708 917450543"/>
    </vehicle>
    <vehicle id="veh_24" type="car" depart="177">
        <route edges="136822578 1174874706"/>
    </vehicle>
    <vehicle id="veh_85" type="motorcycle" depart="178">
        <route edges="775437708 917450543"/>
    </vehicle>
    <vehicle id="jeepney_12" type="traditional_jeepney" depart="178">
        <route edges="-4588647 -917450542 1174874706"/>
    </vehicle>
    <vehicle id="veh_86" type="motorcycle" depart="184">
        <route edges="1112806233 4588647"/>
    </vehicle>
    <vehicle id="veh_87" type="motorcycle" depart="184">
        <route edges="136822578 1174874706"/>
    </vehicle>
    <vehicle id="veh_25" type="car" depart="187">
        <route edges="1112806233 4588647"/>
    </vehicle>
    <vehicle id="jeepney_13" type="traditional_jeepney" depart="188">
        <route edges="-4588647 -917450542 1174874706"/>
    </vehicle>
    <vehicle id="veh_88" type="motorcycle" depart="192">
        <route edges="775437708 917450543"/>
    </vehicle>
    <vehicle id="veh_26" type="car" depart="194">
        <route edges="136822578 1174874706"/>
    </vehicle>
    <vehicle id="veh_89" type="motorcycle" depart="194">
        <route edges="775437708 917450543"/>
    </vehicle>
    <vehicle id="veh_27" type="car" depart="195">
        <route edges="775437708 917450543"/>
    </vehicle>
    <vehicle id="veh_114" type="truck" depart="197">
        <route edges="775437708 917450543"/>
    </vehicle>
    <vehicle id="jeepney_14" type="traditional_jeepney" depart="197">
        <route edges="1112806233 4588647"/>
    </vehicle>
    <vehicle id="veh_28" type="car" depart="201">
        <route edges="775437708 917450543"/>
    </vehicle>
    <vehicle id="veh_140" type="bicycle" depart="201">
        <route edges="1112806233 160192389"/>
    </vehicle>
    <vehicle id="veh_90" type="motorcycle" depart="204">
        <route edges="775437708 917450543"/>
    </vehicle>
    <vehicle id="jeepney_15" type="traditional_jeepney" depart="205">
        <route edges="-4588647 -917450542 1174874706"/>
    </vehicle>
    <vehicle id="veh_29" type="car" depart="207">
        <route edges="1112806233 160192389"/>
    </vehicle>
    <vehicle id="veh_91" type="motorcycle" depart="207">
        <route edges="775437708 917450543"/>
    </vehicle>
    <vehicle id="veh_92" type="motorcycle" depart="212">
        <route edges="136822578 1174874706"/>
    </vehicle>
    <vehicle id="veh_93" type="motorcycle" depart="217">
        <route edges="136822578 1174874706"/>
    </vehicle>
    <vehicle id="veh_30" type="car" depart="220">
        <route edges="136822578 1174874706"/>
    </vehicle>
    <vehicle id="jeepney_16" type="traditional_jeepney" depart="220">
        <route edges="1112806233 4588647"/>
    </vehicle>
    <vehicle id="veh_94" type="motorcycle" depart="221">
        <route edges="775437708 917450543"/>
    </vehicle>
    <vehicle id="veh_31" type="car" depart="225">
        <route edges="136822578 1174874706"/>
    </vehicle>
    <vehicle id="veh_95" type="motorcycle" depart="225">
        <route edges="775437708 917450543"/>
    </vehicle>
    <vehicle id="veh_96" type="motorcycle" depart="226">
        <route edges="775437708 917450543"/>
    </vehicle>
    <vehicle id="veh_32" type="car" depart="230">
        <route edges="775437708 917450543"/>
    </vehicle>
    <vehicle id="veh_97" type="motorcycle" depart="231">
        <route edges="136822578 1174874706"/>
    </vehicle>
    <vehicle id="veh_98" type="motorcycle" depart="236">
        <route edges="136822578 1174874706"/>
    </vehicle>
    <vehicle id="veh_99" type="motorcycle" depart="237">
        <route edges="136822578 1174874706"/>
    </vehicle>
    <vehicle id="veh_33" type="car" depart="238">
        <route edges="136822578 1174874706"/>
    </vehicle>
    <vehicle id="jeepney_17" type="traditional_jeepney" depart="239">
        <route edges="-4588647 -917450542 1174874706"/>
    </vehicle>
    <vehicle id="veh_100" type="motorcycle" depart="244">
        <route edges="1112806233 160192389"/>
    </vehicle>
    <vehicle id="veh_141" type="bicycle" depart="245">
        <route edges="775437708 917450543"/>
    </vehicle>
    <vehicle id="veh_34" type="car" depart="247">
        <route edges="136822578 1174874706"/>
    </vehicle>
    <vehicle id="veh_101" type="motorcycle" depart="250">
        <route edges="136822578 1174874706"/>
    </vehicle>
    <vehicle id="veh_35" type="car" depart="253">
        <route edges="1112806233 160192389"/>
    </vehicle>
    <vehicle id="jeepney_18" type="traditional_jeepney" depart="253">
        <route edges="-4588647 -917450542 1174874706"/>
    </vehicle>
    <vehicle id="veh_102" type="motorcycle" depart="255">
        <route edges="1112806233 4588647"/>
    </vehicle>
    <vehicle id="veh_103" type="motorcycle" depart="259">
        <route edges="775437708 917450543"/>
    </vehicle>
    <vehicle id="veh_36" type="car" depart="260">
        <route edges="775437708 917450543"/>
    </vehicle>
    <vehicle id="veh_104" type="motorcycle" depart="264">
        <route edges="136822578 1174874706"/>
    </vehicle>
    <vehicle id="veh_37" type="car" depart="268">
        <route edges="775437708 917450543"/>
    </vehicle>
    <vehicle id="jeepney_19" type="traditional_jeepney" depart="268">
        <route edges="1112806233 4588647"/>
    </vehicle>
    <vehicle id="veh_105" type="motorcycle" depart="270">
        <route edges="1112806233 4588647"/>
    </vehicle>
    <vehicle id="veh_38" type="car" depart="274">
        <route edges="775437708 917450543"/>
    </vehicle>
    <vehicle id="veh_106" type="motorcycle" depart="274">
        <route edges="136822578 1174874706"/>
    </vehicle>
    <vehicle id="veh_115" type="truck" depart="277">
        <route edges="775437708 917450543"/>
    </vehicle>
    <vehicle id="veh_107" type="motorcycle" depart="278">
        <route edges="775437708 917450543"/>
    </vehicle>
    <vehicle id="veh_39" type="car" depart="279">
        <route edges="136822578 1174874706"/>
    </vehicle>
    <vehicle id="veh_108" type="motorcycle" depart="281">
        <route edges="775437708 917450543"/>
    </vehicle>
    <vehicle id="jeepney_20" type="traditional_jeepney" depart="283">
        <route edges="1112806233 4588647"/>
    </vehicle>
    <vehicle id="veh_40" type="car" depart="286">
        <route edges="775437708 917450543"/>
    </vehicle>
    <vehicle id="veh_109" type="motorcycle" depart="288">
        <route edges="136822578 1174874706"/>
    </vehicle>
    <vehicle id="veh_110" type="motorcycle" depart="290">
        <route edges="136822578 1174874706"/>
    </vehicle>
    <vehicle id="veh_41" type="car" depart="292">
        <route edges="136822578 1174874706"/>
    </vehicle>
    <vehicle id="veh_111" type="motorcycle" depart="293">
        <route edges="775437708 917450543"/>
    </vehicle>
    <vehicle id="veh_112" type="motorcycle" depart="296">
        <route edges="136822578 1174874706"/>
    </vehicle>
    <vehicle id="veh_142" type="car" depart="307">
        <route edges="136822578 1174874706"/>
    </vehicle>
    <vehicle id="veh_186" type="motorcycle" depart="307">
        <route edges="775437708 917450543"/>
    </vehicle>
    <vehicle id="veh_187" type="motorcycle" depart="311">
        <route edges="775437708 917450543"/>
    </vehicle>
    <vehicle id="veh_143" type="car" depart="312">
        <route edges="775437708 917450543"/>
    </vehicle>
    <vehicle id="veh_188" type="motorcycle" depart="314">
        <route edges="136822578 1174874706"/>
    </vehicle>
    <vehicle id="veh_189" type="motorcycle" depart="314">
        <route edges="136822578 1174874706"/>
    </vehicle>
    <vehicle id="veh_190" type="motorcycle" depart="315">
        <route edges="775437708 917450543"/>
    </vehicle>
    <vehicle id="veh_144" type="car" depart="316">
        <route edges="136822578 1174874706"/>
    </vehicle>
    <vehicle id="veh_145" type="car" depart="318">
        <route edges="136822578 1174874706"/>
    </vehicle>
    <vehicle id="veh_191" type="motorcycle" depart="319">
        <route edges="136822578 1174874706"/>
    </vehicle>
    <vehicle id="jeepney_21" type="traditional_jeepney" depart="319">
        <route edges="1112806233 4588647"/>
    </vehicle>
    <vehicle id="veh_192" type="motorcycle" depart="325">
        <route edges="136822578 1174874706"/>
    </vehicle>
    <vehicle id="veh_146" type="car" depart="327">
        <route edges="136822578 1174874706"/>
    </vehicle>
    <vehicle id="veh_193" type="motorcycle" depart="331">
        <route edges="775437708 917450543"/>
    </vehicle>
    <vehicle id="veh_194" type="motorcycle" depart="333">
        <route edges="775437708 917450543"/>
    </vehicle>
    <vehicle id="veh_147" type="car" depart="337">
        <route edges="136822578 1174874706"/>
    </vehicle>
    <vehicle id="jeepney_22" type="traditional_jeepney" depart="338">
        <route edges="1112806233 4588647"/>
    </vehicle>
    <vehicle id="veh_195" type="motorcycle" depart="341">
        <route edges="775437708 917450543"/>
    </vehicle>
    <vehicle id="veh_148" type="car" depart="345">
        <route edges="775437708 917450543"/>
    </vehicle>
    <vehicle id="veh_196" type="motorcycle" depart="347">
        <route edges="775437708 917450543"/>
    </vehicle>
    <vehicle id="veh_149" type="car" depart="349">
        <route edges="775437708 917450543"/>
    </vehicle>
    <vehicle id="veh_197" type="motorcycle" depart="349">
        <route edges="1112806233 160192389"/>
    </vehicle>
    <vehicle id="jeepney_23" type="traditional_jeepney" depart="351">
        <route edges="-4588647 -917450542 1174874706"/>
    </vehicle>
    <vehicle id="veh_278" type="bicycle" depart="352">
        <route edges="-4588647 -917450542 1174874706"/>
    </vehicle>
    <vehicle id="veh_198" type="motorcycle" depart="353">
        <route edges="136822578 1174874706"/>
    </vehicle>
    <vehicle id="veh_199" type="motorcycle" depart="355">
        <route edges="136822578 1174874706"/>
    </vehicle>
    <vehicle id="veh_257" type="truck" depart="359">
        <route edges="775437708 917450543"/>
    </vehicle>
    <vehicle id="veh_150" type="car" depart="360">
        <route edges="136822578 1174874706"/>
    </vehicle>
    <vehicle id="veh_200" type="motorcycle" depart="360">
        <route edges="1112806233 4588647"/>
    </vehicle>
    <vehicle id="jeepney_24" type="traditional_jeepney" depart="361">
        <route edges="-4588647 -917450542 1174874706"/>
    </vehicle>
    <vehicle id="veh_201" type="motorcycle" depart="364">
        <route edges="136822578 1174874706"/>
    </vehicle>
    <vehicle id="veh_151" type="car" depart="367">
        <route edges="775437708 917450543"/>
    </vehicle>
    <vehicle id="veh_202" type="motorcycle" depart="367">
        <route edges="136822578 1174874706"/>
    </vehicle>
    <vehicle id="veh_203" type="motorcycle" depart="369">
        <route edges="136822578 1174874706"/>
    </vehicle>
    <vehicle id="veh_152" type="car" depart="374">
        <route edges="775437708 917450543"/>
    </vehicle>
    <vehicle id="veh_204" type="motorcycle" depart="375">
        <route edges="136822578 1174874706"/>
    </vehicle>
    <vehicle id="jeepney_25" type="traditional_jeepney" depart="379">
        <route edges="-4588647 -917450542 1174874706"/>
    </vehicle>
    <vehicle id="veh_153" type="car" depart="381">
        <route edges="136822578 1174874706"/>
    </vehicle>
    <vehicle id="veh_205" type="motorcycle" depart="381">
        <route edges="136822578 1174874706"/>
    </vehicle>
    <vehicle id="veh_154" type="car" depart="382">
        <route edges="775437708 917450543"/>
    </vehicle>
    <vehicle id="veh_155" type="car" depart="387">
        <route edges="775437708 917450543"/>
    </vehicle>
    <vehicle id="veh_206" type="motorcycle" depart="389">
        <route edges="775437708 917450543"/>
    </vehicle>
    <vehicle id="jeepney_26" type="traditional_jeepney" depart="390">
        <route edges="1112806233 4588647"/>
    </vehicle>
    <vehicle id="veh_156" type="car" depart="394">
        <route edges="775437708 917450543"/>
    </vehicle>
    <vehicle id="veh_207" type="motorcycle" depart="395">
        <route edges="775437708 917450543"/>
    </vehicle>
    <vehicle id="veh_208" type="motorcycle" depart="401">
        <route edges="775437708 917450543"/>
    </vehicle>
    <vehicle id="veh_209" type="motorcycle" depart="401">
        <route edges="136822578 1174874706"/>
    </vehicle>
    <vehicle id="veh_279" type="bicycle" depart="401">
        <route edges="775437708 917450543"/>
    </vehicle>
    <vehicle id="jeepney_27" type="traditional_jeepney" depart="404">
        <route edges="-4588647 -917450542 1174874706"/>
    </vehicle>
    <vehicle id="veh_210" type="motorcycle" depart="406">
        <route edges="775437708 917450543"/>
    </vehicle>
    <vehicle id="veh_157" type="car" depart="409">
        <route edges="136822578 1174874706"/>
    </vehicle>
    <vehicle id="veh_158" type="car" depart="411">
        <route edges="136822578 1174874706"/>
    </vehicle>
    <vehicle id="veh_211" type="motorcycle" depart="411">
        <route edges="775437708 917450543"/>
    </vehicle>
    <vehicle id="veh_258" type="truck" depart="411">
        <route edges="775437708 917450543"/>
    </vehicle>
    <vehicle id="veh_212" type="motorcycle" depart="413">
        <route edges="775437708 917450543"/>
    </vehicle>
    <vehicle id="veh_159" type="car" depart="415">
        <route edges="136822578 1174874706"/>
    </vehicle>
    <vehicle id="veh_213" type="motorcycle" depart="418">
        <route edges="136822578 1174874706"/>
    </vehicle>
    <vehicle id="jeepney_28" type="traditional_jeepney" depart="419">
        <route edges="1112806233 4588647"/>
    </vehicle>
    <vehicle id="veh_160" type="car" depart="420">
        <route edges="775437708 917450543"/>
    </vehicle>
    <vehicle id="veh_161" type="car" depart="427">
        <route edges="775437708 917450543"/>
    </vehicle>
    <vehicle id="veh_214" type="motorcycle" depart="429">
        <route edges="775437708 917450543"/>
    </vehicle>
    <vehicle id="veh_215" type="motorcycle" depart="429">
        <route edges="1112806233 160192389"/>
    </vehicle>
    <vehicle id="veh_216" type="motorcycle" depart="431">
        <route edges="775437708 917450543"/>
    </vehicle>
    <vehicle id="veh_217" type="motorcycle" depart="434">
        <route edges="775437708 917450543"/>
    </vehicle>
    <vehicle id="veh_162" type="car" depart="435">
        <route edges="775437708 917450543"/>
    </vehicle>
    <vehicle id="veh_218" type="motorcycle" depart="437">
        <route edges="775437708 917450543"/>
    </vehicle>
    <vehicle id="veh_219" type="motorcycle" depart="440">
        <route edges="775437708 917450543"/>
    </vehicle>
    <vehicle id="veh_163" type="car" depart="441">
        <route edges="136822578 1174874706"/>
    </vehicle>
    <vehicle id="jeepney_29" type="traditional_jeepney" depart="443">
        <route edges="1112806233 4588647"/>
    </vehicle>
    <vehicle id="veh_220" type="motorcycle" depart="444">
        <route edges="775437708 917450543"/>
    </vehicle>
    <vehicle id="veh_280" type="bicycle" depart="446">
        <route edges="136822578 1174874706"/>
    </vehicle>
    <vehicle id="veh_221" type="motorcycle" depart="447">
        <route edges="1112806233 160192389"/>
    </vehicle>
    <vehicle id="veh_164" type="car" depart="452">
        <route edges="136822578 1174874706"/>
    </vehicle>
    <vehicle id="veh_222" type="motorcycle" depart="455">
        <route edges="136822578 1174874706"/>
    </vehicle>
    <vehicle id="veh_223" type="motorcycle" depart="460">
        <route edges="136822578 1174874706"/>
    </vehicle>
    <vehicle id="veh_165" type="car" depart="461">
        <route edges="1112806233 4588647"/>
    </vehicle>
    <vehicle id="veh_224" type="motorcycle" depart="461">
        <route edges="775437708 917450543"/>
    </vehicle>
    <vehicle id="jeepney_30" type="traditional_jeepney" depart="461">
        <route edges="1112806233 4588647"/>
    </vehicle>
    <vehicle id="veh_225" type="motorcycle" depart="464">
        <route edges="775437708 917450543"/>
    </vehicle>
    <vehicle id="veh_166" type="car" depart="465">
        <route edges="136822578 1174874706"/>
    </vehicle>
    <vehicle id="veh_226" type="motorcycle" depart="466">
        <route edges="775437708 917450543"/>
    </vehicle>
    <vehicle id="veh_227" type="motorcycle" depart="470">
        <route edges="136822578 1174874706"/>
    </vehicle>
    <vehicle id="veh_167" type="car" depart="474">
        <route edges="775437708 917450543"/>
    </vehicle>
    <vehicle id="veh_259" type="truck" depart="474">
        <route edges="775437708 917450543"/>
    </vehicle>
    <vehicle id="veh_228" type="motorcycle" depart="475">
        <route edges="1112806233 4588647"/>
    </vehicle>
    <vehicle id="veh_229" type="motorcycle" depart="477">
        <route edges="136822578 1174874706"/>
    </vehicle>
    <vehicle id="veh_168" type="car" depart="478">
        <route edges="136822578 1174874706"/>
    </vehicle>
    <vehicle id="veh_169" type="car" depart="480">
        <route edges="136822578 1174874706"/>
    </vehicle>
    <vehicle id="veh_230" type="motorcycle" depart="481">
        <route edges="136822578 1174874706"/>
    </vehicle>
    <vehicle id="jeepney_31" type="traditional_jeepney" depart="483">
        <route edges="-4588647 -917450542 1174874706"/>
    </vehicle>
    <vehicle id="veh_170" type="car" depart="484">
        <route edges="1112806233 4588647"/>
    </vehicle>
    <vehicle id="veh_231" type="motorcycle" depart="486">
        <route edges="775437708 917450543"/>
    </vehicle>
    <vehicle id="veh_232" type="motorcycle" depart="489">
        <route edges="775437708 917450543"/>
    </vehicle>
    <vehicle id="veh_171" type="car" depart="491">
        <route edges="775437708 917450543"/>
    </vehicle>
    <vehicle id="veh_233" type="motorcycle" depart="493">
        <route edges="775437708 917450543"/>
    </vehicle>
    <vehicle id="veh_281" type="bicycle" depart="494">
        <route edges="136822578 1174874706"/>
    </vehicle>
    <vehicle id="veh_172" type="car" depart="496">
        <route edges="136822578 1174874706"/>
    </vehicle>
    <vehicle id="veh_234" type="motorcycle" depart="498">
        <route edges="136822578 1174874706"/>
    </vehicle>
    <vehicle id="jeepney_32" type="traditional_jeepney" depart="498">
        <route edges="1112806233 4588647"/>
    </vehicle>
    <vehicle id="veh_235" type="motorcycle" depart="503">
        <route edges="775437708 917450543"/>
    </vehicle>
    <vehicle id="veh_173" type="car" depart="504">
        <route edges="775437708 917450543"/>
    </vehicle>
    <vehicle id="veh_236" type="motorcycle" depart="506">
        <route edges="136822578 1174874706"/>
    </vehicle>
    <vehicle id="veh_174" type="car" depart="511">
        <route edges="775437708 917450543"/>
    </vehicle>
    <vehicle id="veh_237" type="motorcycle" depart="511">
        <route edges="775437708 917450543"/>
    </vehicle>
    <vehicle id="veh_238" type="motorcycle" depart="512">
        <route edges="1112806233 4588647"/>
    </vehicle>
    <vehicle id="veh_175" type="car" depart="517">
        <route edges="136822578 1174874706"/>
    </vehicle>
    <vehicle id="veh_239" type="motorcycle" depart="517">
        <route edges="775437708 917450543"/>
    </vehicle>
    <vehicle id="jeepney_33" type="traditional_jeepney" depart="519">
        <route edges="1112806233 4588647"/>
    </vehicle>
    <vehicle id="veh_240" type="motorcycle" depart="521">
        <route edges="775437708 917450543"/>
    </vehicle>
    <vehicle id="veh_176" type="car" depart="529">
        <route edges="1112806233 160192389"/>
    </vehicle>
    <vehicle id="veh_241" type="motorcycle" depart="530">
        <route edges="136822578 1174874706"/>
    </vehicle>