<?xml version="1.0" ?>
<routes xmlns:xsi="http://www.w3.org/2001/XMLSchema-instance" xsi:noNamespaceSchemaLocation="http://sumo.dlr.de/xsd/routes_file.xsd">
    <vehicle id="veh_36" type="motorcycle" depart="2">
        <route edges="136822578 1174874706"/>
    </vehicle>
    <vehicle id="veh_37" type="motorcycle" depart="6">
        <route edges="775437708 917450543"/>
    </vehicle>
    <vehicle id="veh_38" type="motorcycle" depart="11">
        <route edges="136822578 1174874706"/>
    </vehicle>
    <vehicle id="veh_0" type="car" depart="13">
        <route edges="1112806233 160192389"/>
    </vehicle>
    <vehicle id="veh_39" type="motorcycle" depart="13">
        <route edges="136822578 1174874706"/>
    </vehicle>
    <vehicle id="veh_40" type="motorcycle" depart="15">
        <route edges="136822578 1174874706"/>
    </vehicle>
    <vehicle id="veh_41" type="motorcycle" depart="15">
        <route edges="136822578 1174874706"/>
    </vehicle>
    <vehicle id="veh_42" type="motorcycle" depart="16">
        <route edges="775437708 917450543"/>
    </vehicle>
    <vehicle id="veh_43" type="motorcycle" depart="19">
        <route edges="775437708 917450543"/>
    </vehicle>
    <vehicle id="veh_44" type="motorcycle" depart="22">
        <route edges="136822578 1174874706"/>
    </vehicle>
    <vehicle id="veh_45" type="motorcycle" depart="23">
        <route edges="136822578 1174874706"/>
    </vehicle>
    <vehicle id="veh_1" type="car" depart="25">
        <route edges="136822578 1174874706"/>
    </vehicle>
    <vehicle id="veh_46" type="motorcycle" depart="25">
        <route edges="775437708 917450543"/>
    </vehicle>
    <vehicle id="veh_47" type="motorcycle" depart="28">
        <route edges="1112806233 160192389"/>
    </vehicle>
    <vehicle id="veh_2" type="car" depart="29">
        <route edges="136822578 1174874706"/>
    </vehicle>
    <vehicle id="veh_48" type="motorcycle" depart="32">
        <route edges="136822578 1174874706"/>
    </vehicle>
    <vehicle id="veh_49" type="motorcycle" depart="37">
        <route edges="1112806233 160192389"/>
    </vehicle>
    <vehicle id="veh_3" type="car" depart="38">
        <route edges="136822578 1174874706"/>
    </vehicle>
    <vehicle id="veh_50" type="motorcycle" depart="41">
        <route edges="1112806233 4588647"/>
    </vehicle>
    <vehicle id="veh_4" type="car" depart="43">
        <route edges="775437708 917450543"/>
    </vehicle>
    <vehicle id="veh_51" type="motorcycle" depart="45">
        <route edges="1112806233 4588647"/>
    </vehicle>
    <vehicle id="veh_52" type="motorcycle" depart="47">
        <route edges="136822578 1174874706"/>
    </vehicle>
    <vehicle id="veh_53" type="motorcycle" depart="47">
        <route edges="775437708 917450543"/>
    </vehicle>
    <vehicle id="veh_54" type="motorcycle" depart="48">
        <route edges="136822578 1174874706"/>
    </vehicle>
    <vehicle id="veh_55" type="motorcycle" depart="48">
        <route edges="775437708 917450543"/>
    </vehicle>
    <vehicle id="jeepney_0" type="traditional_jeepney" depart="48">
        <route edges="-4588647 -917450542 1174874706"/>
    </vehicle>
    <vehicle id="veh_56" type="motorcycle" depart="49">
        <route edges="136822578 1174874706"/>
    </vehicle>
    <vehicle id="veh_5" type="car" depart="53">
        <route edges="775437708 917450543"/>
    </vehicle>
    <vehicle id="veh_57" type="motorcycle" depart="54">
        <route edges="775437708 917450543"/>
    </vehicle>
    <vehicle id="veh_58" type="motorcycle" depart="55">
        <route edges="136822578 1174874706"/>
    </vehicle>
    <vehicle id="veh_59" type="motorcycle" depart="56">
        <route edges="775437708 917450543"/>
    </vehicle>
    <vehicle id="veh_6" type="car" depart="58">
        <route edges="775437708 917450543"/>
    </vehicle>
    <vehicle id="veh_60" type="motorcycle" depart="59">
        <route edges="136822578 1174874706"/>
    </vehicle>
    <vehicle id="veh_130" type="bicycle" depart="62">
        <route edges="775437708 917450543"/>
    </vehicle>
    <vehicle id="veh_61" type="motorcycle" depart="63">
        <route edges="775437708 917450543"/>
    </vehicle>
    <vehicle id="veh_7" type="car" depart="66">
        <route edges="136822578 1174874706"/>
    </vehicle>
    <vehicle id="veh_62" type="motorcycle" depart="70">
        <route edges="775437708 917450543"/>
    </vehicle>
    <vehicle id="veh_63" type="motorcycle" depart="73">
        <route edges="136822578 1174874706"/>
    </vehicle>
    <vehicle id="veh_121" type="truck" depart="75">
        <route edges="775437708 917450543"/>
    </vehicle>
    <vehicle id="veh_8" type="car" depart="76">
        <route edges="775437708 917450543"/>
    </vehicle>
    <vehicle id="veh_64" type="motorcycle" depart="76">
        <route edges="775437708 917450543"/>
    </vehicle>
    <vehicle id="veh_9" type="car" depart="79">
        <route edges="136822578 1174874706"/>
    </vehicle>
    <vehicle id="veh_65" type="motorcycle" depart="79">
        <route edges="775437708 917450543"/>
    </vehicle>
    <vehicle id="veh_66" type="motorcycle" depart="81">
        <route edges="775437708 917450543"/>
    </vehicle>
    <vehicle id="veh_67" type="motorcycle" depart="86">
        <route edges="775437708 917450543"/>
    </vehicle>
    <vehicle id="veh_68" type="motorcycle" depart="89">
        <route edges="1112806233 4588647"/>
    </vehicle>
    <vehicle id="veh_10" type="car" depart="94">
        <route edges="775437708 917450543"/>
    </vehicle>
    <vehicle id="veh_69" type="motorcycle" depart="95">
        <route edges="1112806233 160192389"/>
    </vehicle>
    <vehicle id="veh_11" type="car" depart="100">
        <route edges="136822578 1174874706"/>
    </vehicle>
    <vehicle id="veh_70" type="motorcycle" depart="102">
        <route edges="775437708 917450543"/>
    </vehicle>
    <vehicle id="veh_12" type="car" depart="105">
        <route edges="136822578 1174874706"/>
    </vehicle>
    <vehicle id="veh_71" type="motorcycle" depart="108">
        <route edges="775437708 917450543"/>
    </vehicle>
    <vehicle id="veh_13" type="car" depart="111">
        <route edges="136822578 1174874706"/>
    </vehicle>
    <vehicle id="veh_72" type="motorcycle" depart="111">
        <route edges="136822578 1174874706"/>
    </vehicle>
    <vehicle id="veh_73" type="motorcycle" depart="116">
        <route edges="136822578 1174874706"/>
    </vehicle>
    <vehicle id="veh_74" type="motorcycle" depart="117">
        <route edges="775437708 917450543"/>
    </vehicle>
    <vehicle id="veh_14" type="car" depart="120">
        <route edges="136822578 1174874706"/>
    </vehicle>
    <vehicle id="veh_75" type="motorcycle" depart="120">
        <route edges="1112806233 4588647"/>
    </vehicle>
    <vehicle id="jeepney_1" type="traditional_jeepney" depart="123">
        <route edges="1112806233 4588647"/>
    </vehicle>
    <vehicle id="veh_76" type="motorcycle" depart="124">
        <route edges="136822578 1174874706"/>
    </vehicle>
    <vehicle id="veh_77" type="motorcycle" depart="126">
        <route edges="136822578 1174874706"/>
    </vehicle>
    <vehicle id="veh_78" type="motorcycle" depart="130">
        <route edges="775437708 917450543"/>
    </vehicle>
    <vehicle id="veh_131" type="bicycle" depart="131">
        <route edges="775437708 917450543"/>
    </vehicle>
    <vehicle id="veh_15" type="car" depart="132">
        <route edges="775437708 917450543"/>
    </vehicle>
    <vehicle id="veh_79" type="motorcycle" depart="136">
        <route edges="775437708 917450543"/>
    </vehicle>
    <vehicle id="veh_16" type="car" depart="139">
        <route edges="775437708 917450543"/>
    </vehicle>
    <vehicle id="veh_80" type="motorcycle" depart="140">
        <route edges="1112806233 160192389"/>
    </vehicle>
    <vehicle id="veh_81" type="motorcycle" depart="143">
        <route edges="1112806233 160192389"/>
    </vehicle>
    <vehicle id="veh_124" type="bus" depart="144">
        <route edges="775437708 917450543"/>
    </vehicle>
    <vehicle id="veh_17" type="car" depart="147">
        <route edges="136822578 1174874706"/>
    </vehicle>
    <vehicle id="veh_82" type="motorcycle" depart="148">
        <route edges="775437708 917450543"/>
    </vehicle>
    <vehicle id="veh_18" type="car" depart="151">
        <route edges="136822578 1174874706"/>
    </vehicle>
    <vehicle id="veh_83" type="motorcycle" depart="152">
        <route edges="775437708 917450543"/>
    </vehicle>
    <vehicle id="veh_122" type="truck" depart="155">
        <route edges="775437708 917450543"/>
    </vehicle>
    <vehicle id="veh_84" type="motorcycle" depart="156">
        <route edges="1112806233 160192389"/>
    </vehicle>
    <vehicle id="veh_85" type="motorcycle" depart="156">
        <route edges="136822578 1174874706"/>
    </vehicle>
    <vehicle id="veh_19" type="car" depart="159">
        <route edges="775437708 917450543"/>
    </vehicle>
    <vehicle id="veh_86" type="motorcycle" depart="162">
        <route edges="136822578 1174874706"/>
    </vehicle>
    <vehicle id="veh_87" type="motorcycle" depart="164">
        <route edges="775437708 917450543"/>
    </vehicle>
    <vehicle id="veh_20" type="car" depart="167">
        <route edges="136822578 1174874706"/>
    </vehicle>
    <vehicle id="veh_88" type="motorcycle" depart="170">
        <route edges="775437708 917450543"/>
    </vehicle>
    <vehicle id="veh_89" type="motorcycle" depart="171">
        <route edges="775437708 917450543"/>
    </vehicle>
    <vehicle id="veh_21" type="car" depart="173">
        <route edges="775437708 917450543"/>
    </vehicle>
    <vehicle id="veh_90" type="motorcycle" depart="175">
        <route edges="775437708 917450543"/>
    </vehicle>
    <vehicle id="veh_22" type="car" depart="178">
        <route edges="1112806233 160192389"/>
    </vehicle>
    <vehicle id="veh_91" type="motorcycle" depart="179">
        <route edges="1112806233 4588647"/>
    </vehicle>
    <vehicle id="veh_23" type="car" depart="184">
        <route edges="136822578 1174874706"/>
    </vehicle>
    <vehicle id="veh_92" type="motorcycle" depart="184">
        <route edges="775437708 917450543"/>
    </vehicle>
    <vehicle id="veh_93" type="motorcycle" depart="187">
        <route edges="136822578 1174874706"/>
    </vehicle>
    <vehicle id="veh_94" type="motorcycle" depart="191">
        <route edges="775437708 917450543"/>
    </vehicle>
    <vehicle id="jeepney_2" type="traditional_jeepney" depart="191">
        <route edges="1112806233 4588647"/>
    </vehicle>
    <vehicle id="veh_24" type="car" depart="196">
        <route edges="136822578 1174874706"/>
    </vehicle>
    <vehicle id="veh_95" type="motorcycle" depart="196">
        <route edges="136822578 1174874706"/>
    </vehicle>
    <vehicle id="veh_96" type="motorcycle" depart="200">
        <route edges="136822578 1174874706"/>
    </vehicle>
    <vehicle id="veh_25" type="car" depart="203">
        <route edges="136822578 1174874706"/>
    </vehicle>
    <vehicle id="veh_132" type="bicycle" depart="203">
        <route edges="775437708 917450543"/>
    </vehicle>
    <vehicle id="veh_97" type="motorcycle" depart="207">
        <route edges="775437708 917450543"/>
    </vehicle>
    <vehicle id="veh_26" type="car" depart="210">
        <route edges="136822578 1174874706"/>
    </vehicle>
    <vehicle id="veh_98" type="motorcycle" depart="210">
        <route edges="775437708 917450543"/>
    </vehicle>
    <vehicle id="veh_99" type="motorcycle" depart="211">
        <route edges="136822578 1174874706"/>
    </vehicle>
    <vehicle id="veh_100" type="motorcycle" depart="213">
        <route edges="136822578 1174874706"/>
    </vehicle>
    <vehicle id="veh_101" type="motorcycle" depart="215">
        <route edges="775437708 917450543"/>
    </vehicle>
    <vehicle id="veh_27" type="car" depart="220">
        <route edges="136822578 1174874706"/>
    </vehicle>
    <vehicle id="veh_102" type="motorcycle" depart="221">
        <route edges="775437708 917450543"/>
    </vehicle>
    <vehicle id="veh_103" type="motorcycle" depart="222">
        <route edges="775437708 917450543"/>
    </vehicle>
    <vehicle id="veh_104" type="motorcycle" depart="224">
        <route edges="136822578 1174874706"/>
    </vehicle>
    <vehicle id="veh_105" type="motorcycle" depart="226">
        <route edges="775437708 917450543"/>
    </vehicle>
    <vehicle id="veh_28" type="car" depart="228">
        <route edges="136822578 1174874706"/>
    </vehicle>
    <vehicle id="veh_106" type="motorcycle" depart="229">
        <route edges="775437708 917450543"/>
    </vehicle>
    <vehicle id="veh_107" type="motorcycle" depart="232">
        <route edges="-4588647 -917450542 1174874706"/>
    </vehicle>
    <vehicle id="veh_108" type="motorcycle" depart="233">
        <route edges="136822578 1174874706"/>
    </vehicle>
    <vehicle id="veh_109" type="motorcycle" depart="235">
        <route edges="775437708 917450543"/>
    </vehicle>
    <vehicle id="veh_29" type="car" depart="237">
        <route edges="136822578 1174874706"/>
    </vehicle>
    <vehicle id="veh_123" type="truck" depart="240">
        <route edges="775437708 917450543"/>
    </vehicle>
    <vehicle id="veh_110" type="motorcycle" depart="241">
        <route edges="136822578 1174874706"/>
    </vehicle>
    <vehicle id="veh_111" type="motorcycle" depart="249">
        <route edges="775437708 917450543"/>
    </vehicle>
    <vehicle id="veh_30" type="car" depart="251">
        <route edges="1112806233 4588647"/>
    </vehicle>
    <vehicle id="jeepney_3" type="traditional_jeepney" depart="251">
        <route edges="1112806233 4588647"/>
    </vehicle>
    <vehicle id="veh_112" type="motorcycle" depart="252">
        <route edges="136822578 1174874706"/>
    </vehicle>
    <vehicle id="veh_113" type="motorcycle" depart="255">
        <route edges="1112806233 160192389"/>
    </vehicle>
    <vehicle id="veh_114" type="motorcycle" depart="257">
        <route edges="775437708 917450543"/>
    </vehicle>
    <vehicle id="veh_31" type="car" depart="262">
        <route edges="136822578 1174874706"/>
    </vehicle>
    <vehicle id="veh_115" type="motorcycle" depart="263">
        <route edges="775437708 917450543"/>
    </vehicle>
    <vehicle id="veh_116" type="motorcycle" depart="266">
        <route edges="775437708 917450543"/>
    </vehicle>
    <vehicle id="veh_117" type="motorcycle" depart="270">
        <route edges="775437708 917450543"/>
    </vehicle>
    <vehicle id="veh_133" type="bicycle" depart="272">
        <route edges="136822578 1174874706"/>
    </vehicle>
    <vehicle id="veh_32" type="car" depart="274">
        <route edges="136822578 1174874706"/>
    </vehicle>
    <vehicle id="veh_118" type="motorcycle" depart="275">
        <route edges="136822578 1174874706"/>
    </vehicle>
    <vehicle id="veh_119" type="motorcycle" depart="275">
        <route edges="136822578 1174874706"/>
    </vehicle>
    <vehicle id="veh_33" type="car" depart="278">
        <route edges="775437708 917450543"/>
    </vehicle>
    <vehicle id="veh_120" type="motorcycle" depart="279">
        <route edges="136822578 1174874706"/>
    </vehicle>
    <vehicle id="veh_34" type="car" depart="290">
        <route edges="775437708 917450543"/>
    </vehicle>
    <vehicle id="veh_35" type="car" depart="294">
        <route edges="775437708 917450543"/>
    </vehicle>
    <vehicle id="veh_125" type="bus" depart="295">
        <route edges="136822578 1174874706"/>
    </vehicle>
    <vehicle id="veh_180" type="motorcycle" depart="304">
        <route edges="136822578 1174874706"/>
    </vehicle>
    <vehicle id="veh_251" type="bicycle" depart="308">
        <route edges="775437708 917450543"/>
    </vehicle>
    <vehicle id="veh_134" type="car" depart="309">
        <route edges="136822578 1174874706"/>
    </vehicle>
    <vehicle id="veh_181" type="motorcycle" depart="309">
        <route edges="136822578 1174874706"/>
    </vehicle>
    <vehicle id="veh_135" type="car" depart="313">
        <route edges="136822578 1174874706"/>
    </vehicle>
    <vehicle id="veh_182" type="motorcycle" depart="314">
        <route edges="136822578 1174874706"/>
    </vehicle>
    <vehicle id="veh_136" type="car" depart="315">
        <route edges="136822578 1174874706"/>
    </vehicle>
    <vehicle id="jeepney_4" type="traditional_jeepney" depart="318">
        <route edges="-4588647 -917450542 1174874706"/>
    </vehicle>
    <vehicle id="veh_252" type="bicycle" depart="318">
        <route edges="775437708 917450543"/>
    </vehicle>
    <vehicle id="veh_137" type="car" depart="322">
        <route edges="136822578 1174874706"/>
    </vehicle>
    <vehicle id="veh_183" type="motorcycle" depart="324">
        <route edges="136822578 1174874706"/>
    </vehicle>
    <vehicle id="veh_253" type="bicycle" depart="326">
        <route edges="1112806233 160192389"/>
    </vehicle>
    <vehicle id="veh_184" type="motorcycle" depart="328">
        <route edges="1112806233 4588647"/>
    </vehicle>
    <vehicle id="jeepney_5" type="traditional_jeepney" depart="330">
        <route edges="-4588647 -917450542 1174874706"/>
    </vehicle>
    <vehicle id="veh_138" type="car" depart="332">
        <route edges="775437708 917450543"/>
    </vehicle>
    <vehicle id="veh_254" type="bicycle" depart="332">
        <route edges="136822578 1174874706"/>
    </vehicle>
    <vehicle id="veh_139" type="car" depart="339">
        <route edges="775437708 917450543"/>
    </vehicle>
    <vehicle id="veh_185" type="motorcycle" depart="339">
        <route edges="1112806233 4588647"/>
    </vehicle>
    <vehicle id="veh_186" type="motorcycle" depart="341">
        <route edges="775437708 917450543"/>
    </vehicle>
    <vehicle id="veh_140" type="car" depart="344">
        <route edges="136822578 1174874706"/>
    </vehicle>
    <vehicle id="veh_255" type="bicycle" depart="345">
        <route edges="136822578 1174874706"/>
    </vehicle>
    <vehicle id="veh_187" type="motorcycle" depart="346">
        <route edges="775437708 917450543"/>
    </vehicle>
    <vehicle id="jeepney_6" type="traditional_jeepney" depart="350">
        <route edges="-4588647 -917450542 1174874706"/>
    </vehicle>
    <vehicle id="veh_188" type="motorcycle" depart="353">
        <route edges="136822578 1174874706"/>
    </vehicle>
    <vehicle id="veh_256" type="bicycle" depart="353">
        <route edges="775437708 917450543"/>
    </vehicle>
    <vehicle id="veh_141" type="car" depart="354">
        <route edges="775437708 917450543"/>
    </vehicle>
    <vehicle id="veh_189" type="motorcycle" depart="354">
        <route edges="136822578 1174874706"/>
    </vehicle>
    <vehicle id="veh_230" type="truck" depart="354">
        <route edges="136822578 1174874706"/>
    </vehicle>
    <vehicle id="veh_190" type="motorcycle" depart="362">
        <route edges="136822578 1174874706"/>
    </vehicle>
    <vehicle id="veh_257" type="bicycle" depart="362">
        <route edges="136822578 1174874706"/>
    </vehicle>
    <vehicle id="veh_142" type="car" depart="365">
        <route edges="775437708 917450543"/>
    </vehicle>
    <vehicle id="veh_143" type="car" depart="368">
        <route edges="775437708 917450543"/>
    </vehicle>
    <vehicle id="veh_191" type="motorcycle" depart="368">
        <route edges="775437708 917450543"/>
    </vehicle>
    <vehicle id="jeepney_7" type="traditional_jeepney" depart="368">
        <route edges="-4588647 -917450542 1174874706"/>
    </vehicle>
    <vehicle id="veh_258" type="bicycle" depart="371">
        <route edges="775437708 917450543"/>
    </vehicle>
    <vehicle id="veh_144" type="car" depart="372">
        <route edges="136822578 1174874706"/>
    </vehicle>
    <vehicle id="veh_192" type="motorcycle" depart="372">
        <route edges="136822578 1174874706"/>
    </vehicle>
    <vehicle id="veh_145" type="car" depart="377">
        <route edges="136822578 1174874706"/>
    </vehicle>
    <vehicle id="veh_193" type="motorcycle" depart="378">
        <route edges="136822578 1174874706"/>
    </vehicle>
    <vehicle id="veh_146" type="car" depart="380">
        <route edges="775437708 917450543"/>
    </vehicle>
    <vehicle id="veh_147" type="car" depart="383">
        <route edges="775437708 917450543"/>
    </vehicle>
    <vehicle id="veh_194" type="motorcycle" depart="385">
        <route edges="775437708 917450543"/>
    </vehicle>
    <vehicle id="veh_259" type="bicycle" depart="385">
        <route edges="-4588647 160192389"/>
    </vehicle>
    <vehicle id="veh_195" type="motorcycle" depart="387">
        <route edges="136822578 1174874706"/>
    </vehicle>
    <vehicle id="jeepney_8" type="traditional_jeepney" depart="388">
        <route edges="1112806233 4588647"/>
    </vehicle>
    <vehicle id="veh_148" type="car" depart="389">
        <route edges="136822578 1174874706"/>
    </vehicle>
    <vehicle id="veh_196" type="motorcycle" depart="392">
        <route edges="136822578 1174874706"/>
    </vehicle>
    <vehicle id="veh_149" type="car" depart="396">
        <route edges="136822578 1174874706"/>
    </vehicle>
    <vehicle id="veh_260" type="bicycle" depart="396">
        <route edges="775437708 917450543"/>
    </vehicle>
    <vehicle id="veh_197" type="motorcycle" depart="402">
        <route edges="775437708 917450543"/>
    </vehicle>
    <vehicle id="veh_150" type="car" depart="403">
        <route edges="136822578 1174874706"/>
    </vehicle>
    <vehicle id="veh_261" type="bicycle" depart="403">
        <route edges="136822578 1174874706"/>
    </vehicle>
    <vehicle id="veh_198" type="motorcycle" depart="404">
        <route edges="136822578 1174874706"/>
    </vehicle>
    <vehicle id="veh_262" type="bicycle" depart="408">
        <route edges="136822578 1174874706"/>
    </vehicle>
    <vehicle id="veh_151" type="car" depart="409">
        <route edges="136822578 1174874706"/>
    </vehicle>
    <vehicle id="jeepney_9" type="traditional_jeepney" depart="411">
        <route edges="1112806233 4588647"/>
    </vehicle>
    <vehicle id="veh_199" type="motorcycle" depart="412">
        <route edges="775437708 917450543"/>
    </vehicle>
    <vehicle id="veh_231" type="truck" depart="412">
        <route edges="136822578 1174874706"/>
    </vehicle>
    <vehicle id="veh_152" type="car" depart="417">
        <route edges="1112806233 4588647"/>
    </vehicle>
    <vehicle id="veh_263" type="bicycle" depart="418">
        <route edges="-4588647 -917450542 1174874706"/>
    </vehicle>
    <vehicle id="veh_200" type="motorcycle" depart="422">
        <route edges="136822578 1174874706"/>
    </vehicle>
    <vehicle id="veh_153" type="car" depart="423">
        <route edges="775437708 917450543"/>
    </vehicle>
    <vehicle id="veh_201" type="motorcycle" depart="426">
        <route edges="775437708 917450543"/>
    </vehicle>
    <vehicle id="veh_264" type="bicycle" depart="427">
        <route edges="136822578 1174874706"/>
    </vehicle>
    <vehicle id="veh_154" type="car" depart="428">
        <route edges="775437708 917450543"/>
    </vehicle>
    <vehicle id="jeepney_10" type="traditional_jeepney" depart="431">
        <route edges="-4588647 -917450542 1174874706"/>
    </vehicle>
    <vehicle id="veh_155" type="car" depart="435">
        <route edges="1112806233 4588647"/>
    </vehicle>
    <vehicle id="veh_202" type="motorcycle" depart="435">
        <route edges="136822578 1174874706"/>
    </vehicle>
    <vehicle id="veh_203" type="motorcycle" depart="439">
        <route edges="775437708 917450543"/>
    </vehicle>
    <vehicle id="veh_265" type="bicycle" depart="441">
        <route edges="775437708 917450543"/>
    </vehicle>
    <vehicle id="veh_204" type="motorcycle" depart="445">
        <route edges="775437708 917450543"/>
    </vehicle>
    <vehicle id="veh_156" type="car" depart="448">
        <route edges="775437708 917450543"/>
    </vehicle>
    <vehicle id="veh_205" type="motorcycle" depart="450">
        <route edges="775437708 917450543"/>
    </vehicle>
    <vehicle id="jeepney_11" type="traditional_jeepney" depart="451">
        <route edges="1112806233 4588647"/>
    </vehicle>
    <vehicle id="veh_266" type="bicycle" depart="453">
        <route edges="775437708 917450543"/>
    </vehicle>
    <vehicle id="veh_157" type="car" depart="457">
        <route edges="775437708 917450543"/>
    </vehicle>
    <vehicle id="veh_206" type="motorcycle" depart="460">
        <route edges="136822578 1174874706"/>
    </vehicle>
    <vehicle id="veh_158" type="car" depart="464">
        <route edges="136822578 1174874706"/>
    </vehicle>
    <vehicle id="veh_207" type="motorcycle" depart="464">
        <route edges="775437708 917450543"/>
    </vehicle>
    <vehicle id="veh_159" type="car" depart="468">
        <route edges="775437708 917450543"/>
    </vehicle>
    <vehicle id="veh_267" type="bicycle" depart="469">
        <route edges="136822578 1174874706"/>
    </vehicle>
    <vehicle id="veh_208" type="motorcycle" depart="470">
        <route edges="775437708 917450543"/>
    </vehicle>
    <vehicle id="veh_160" type="car" depart="471">
        <route edges="136822578 1174874706"/>
    </vehicle>
    <vehicle id="veh_232" type="truck" depart="473">
        <route edges="136822578 1174874706"/>
    </vehicle>
    <vehicle id="jeepney_12" type="traditional_jeepney" depart="475">
        <route edges="1112806233 4588647"/>
    </vehicle>
    <vehicle id="veh_161" type="car" depart="476">
        <route edges="136822578 1174874706"/>
    </vehicle>
    <vehicle id="veh_209" type="motorcycle" depart="476">
        <route edges="1112806233 4588647"/>
    </vehicle>
    <vehicle id="veh_268" type="bicycle" depart="477">
        <route edges="775437708 917450543"/>
    </vehicle>
    <vehicle id="veh_210" type="motorcycle" depart="482">
        <route edges="136822578 1174874706"/>
    </vehicle>
    <vehicle id="veh_162" type="car" depart="484">
        <route edges="775437708 917450543"/>
    </vehicle>
    <vehicle id="veh_163" type="car" depart="486">
        <route edges="775437708 917450543"/>
    </vehicle>
    <vehicle id="veh_269" type="bicycle" depart="488">
        <route edges="775437708 917450543"/>
    </vehicle>
    <vehicle id="veh_211" type="motorcycle" depart="491">
        <route edges="136822578 1174874706"/>
    </vehicle>
    <vehicle id="veh_164" type="car" depart="495">
        <route edges="775437708 917450543"/>
    </vehicle>
    <vehicle id="jeepney_13" type="traditional_jeepney" depart="495">
        <route edges="1112806233 4588647"/>
    </vehicle>
    <vehicle id="veh_270" type="bicycle" depart="498">
        <route edges="136822578 1174874706"/>
    </vehicle>
    <vehicle id="veh_212" type="motorcycle" depart="502">
        <route edges="136822578 1174874706"/>
    </vehicle>
    <vehicle id="veh_165" type="car" depart="504">
        <route edges="775437708 917450543"/>
    </vehicle>
    <vehicle id="veh_213" type="motorcycle" depart="505">
        <route edges="136822578 1174874706"/>
    </vehicle>
    <vehicle id="veh_271" type="bicycle" depart="508">
        <route edges="136822578 1174874706"/>
    </vehicle>
    <vehicle id="veh_214" type="motorcycle" depart="511">
        <route edges="136822578 1174874706"/>
    </vehicle>
    <vehicle id="veh_166" type="car" depart="512">
        <route edges="775437708 917450543"/>
    </vehicle>
    <vehicle id="veh_272" type="bicycle" depart="513">
        <route edges="136822578 1174874706"/>
    </vehicle>
    <vehicle id="veh_215" type="motorcycle" depart="517">
        <route edges="775437708 917450543"/>
    </vehicle>
    <vehicle id="veh_167" type="car" depart="519">
        <route edges="-4588647 160192389"/>
    </vehicle>
    <vehicle id="jeepney_14" type="traditional_jeepney" depart="519">
        <route edges="-4588647 -917450542 1174874706"/>
    </vehicle>
    <vehicle id="veh_273" type="bicycle" depart="520">
        <route edges="775437708 917450543"/>
    </vehicle>
    <vehicle id="veh_168" type="car" depart="521">
        <route edges="136822578 1174874706"/>
    </vehicle>
    <vehicle id="veh_216" type="motorcycle" depart="521">
        <route edges="775437708 917450543"/>
    </vehicle>
    <vehicle id="veh_169" type="car" depart="525">
        <route edges="775437708 917450543"/>
    </vehicle>
    <vehicle id="veh_217" type="motorcycle" depart="525">
        <route edges="136822578 1174874706"/>
    </vehicle>
    <vehicle id="veh_274" type="bicycle" depart="529">
        <route edges="1112806233 4588647"/>
    </vehicle>
    <vehicle id="veh_218" type="motorcycle" depart="531">
        <route edges="136822578 1174874706"/>
    </vehicle>
    <vehicle id="veh_170" type="car" depart="533">
        <route edges="1112806233 4588647"/>
    </vehicle>
    <vehicle id="veh_219" type="motorcycle" depart="535">
        <route edges="136822578 1174874706"/>
    </vehicle>
    <vehicle id="veh_233" type="truck" depart="535">
        <route edges="775437708 917450543"/>
    </vehicle>
    <vehicle id="veh_171" type="car" depart="538">
        <route edges="136822578 1174874706"/>
    </vehicle>
    <vehicle id="veh_220" type="motorcycle" depart="540">
        <route edges="136822578 1174874706"/>
    </vehicle>
    <vehicle id="veh_275" type="bicycle" depart="540">
        <route edges="1112806233 160192389"/>
    </vehicle>
    <vehicle id="veh_172" type="car" depart="544">
        <route edges="136822578 1174874706"/>
    </vehicle>
    <vehicle id="veh_221" type="motorcycle" depart="544">
        <route edges="136822578 1174874706"/>
    </vehicle>
    <vehicle id="jeepney_15" type="traditional_jeepney" depart="546">
        <route edges="-4588647 -917450542 1174874706"/>
    </vehicle>
    <vehicle id="veh_222" type="motorcycle" depart="549">