<?xml version="1.0" ?>
<routes xmlns:xsi="http://www.w3.org/2001/XMLSchema-instance" xsi:noNamespaceSchemaLocation="http://sumo.dlr.de/xsd/routes_file.xsd">
    <vehicle id="veh_32" type="motorcycle" depart="4">
        <route edges="1112806233 160192389"/>
    </vehicle>
    <vehicle id="veh_33" type="motorcycle" depart="6">
        <route edges="775437708 917450543"/>
    </vehicle>
    <vehicle id="veh_0" type="car" depart="12">
        <route edges="136822578 1174874706"/>
    </vehicle>
    <vehicle id="veh_34" type="motorcycle" depart="13">
        <route edges="775437708 917450543"/>
    </vehicle>
    <vehicle id="jeepney_0" type="traditional_jeepney" depart="13">
        <route edges="-4588647 -917450542 1174874706"/>
    </vehicle>
    <vehicle id="veh_35" type="motorcycle" depart="16">
        <route edges="1112806233 160192389"/>
    </vehicle>
    <vehicle id="veh_1" type="car" depart="17">
        <route edges="1112806233 160192389"/>
    </vehicle>
    <vehicle id="veh_36" type="motorcycle" depart="22">
        <route edges="136822578 1174874706"/>
    </vehicle>
    <vehicle id="veh_2" type="car" depart="23">
        <route edges="136822578 1174874706"/>
    </vehicle>
    <vehicle id="veh_37" type="motorcycle" depart="24">
        <route edges="136822578 1174874706"/>
    </vehicle>
    <vehicle id="jeepney_1" type="traditional_jeepney" depart="25">
        <route edges="1112806233 4588647"/>
    </vehicle>
    <vehicle id="veh_147" type="bicycle" depart="25">
        <route edges="136822578 1174874706"/>
    </vehicle>
    <vehicle id="veh_38" type="motorcycle" depart="26">
        <route edges="136822578 1174874706"/>
    </vehicle>
    <vehicle id="veh_3" type="car" depart="29">
        <route edges="775437708 917450543"/>
    </vehicle>
    <vehicle id="veh_39" type="motorcycle" depart="29">
        <route edges="1112806233 160192389"/>
    </vehicle>
    <vehicle id="veh_40" type="motorcycle" depart="34">
        <route edges="1112806233 4588647"/>
    </vehicle>
    <vehicle id="jeepney_2" type="traditional_jeepney" depart="35">
        <route edges="-4588647 -917450542 1174874706"/>
    </vehicle>
    <vehicle id="veh_4" type="car" depart="36">
        <route edges="136822578 1174874706"/>
    </vehicle>
    <vehicle id="veh_41" type="motorcycle" depart="37">
        <route edges="136822578 1174874706"/>
    </vehicle>
    <vehicle id="veh_5" type="car" depart="43">
        <route edges="136822578 1174874706"/>
    </vehicle>
    <vehicle id="veh_42" type="motorcycle" depart="45">
        <route edges="775437708 917450543"/>
    </vehicle>
    <vehicle id="jeepney_3" type="traditional_jeepney" depart="45">
        <route edges="-4588647 -917450542 1174874706"/>
    </vehicle>
    <vehicle id="veh_148" type="bicycle" depart="46">
        <route edges="1112806233 160192389"/>
    </vehicle>
    <vehicle id="veh_43" type="motorcycle" depart="50">
        <route edges="136822578 1174874706"/>
    </vehicle>
    <vehicle id="veh_6" type="car" depart="54">
        <route edges="136822578 1174874706"/>
    </vehicle>
    <vehicle id="veh_44" type="motorcycle" depart="55">
        <route edges="775437708 917450543"/>
    </vehicle>
    <vehicle id="veh_45" type="motorcycle" depart="58">
        <route edges="136822578 1174874706"/>
    </vehicle>
    <vehicle id="veh_7" type="car" depart="59">
        <route edges="1112806233 4588647"/>
    </vehicle>
    <vehicle id="jeepney_4" type="traditional_jeepney" depart="60">
        <route edges="-4588647 -917450542 1174874706"/>
    </vehicle>
    <vehicle id="veh_46" type="motorcycle" depart="63">
        <route edges="775437708 917450543"/>
    </vehicle>
    <vehicle id="veh_149" type="bicycle" depart="63">
        <route edges="775437708 917450543"/>
    </vehicle>
    <vehicle id="veh_8" type="car" depart="66">
        <route edges="775437708 917450543"/>
    </vehicle>
    <vehicle id="veh_47" type="motorcycle" depart="66">
        <route edges="775437708 917450543"/>
    </vehicle>
    <vehicle id="veh_48" type="motorcycle" depart="71">
        <route edges="775437708 917450543"/>
    </vehicle>
    <vehicle id="veh_9" type="car" depart="72">
        <route edges="136822578 1174874706"/>
    </vehicle>
    <vehicle id="veh_49" type="motorcycle" depart="74">
        <route edges="775437708 917450543"/>
    </vehicle>
    <vehicle id="veh_50" type="motorcycle" depart="74">
        <route edges="775437708 917450543"/>
    </vehicle>
    <vehicle id="veh_51" type="motorcycle" depart="75">
        <route edges="136822578 1174874706"/>
    </vehicle>
    <vehicle id="veh_124" type="truck" depart="76">
        <route edges="136822578 1174874706"/>
    </vehicle>
    <vehicle id="jeepney_5" type="traditional_jeepney" depart="76">
        <route edges="1112806233 4588647"/>
    </vehicle>
    <vehicle id="veh_52" type="motorcycle" depart="77">
        <route edges="775437708 917450543"/>
    </vehicle>
    <vehicle id="veh_10" type="car" depart="80">
        <route edges="775437708 917450543"/>
    </vehicle>
    <vehicle id="veh_53" type="motorcycle" depart="81">
        <route edges="136822578 1174874706"/>
    </vehicle>
    <vehicle id="veh_150" type="bicycle" depart="83">
        <route edges="136822578 1174874706"/>
    </vehicle>
    <vehicle id="veh_54" type="motorcycle" depart="84">
        <route edges="775437708 917450543"/>
    </vehicle>
    <vehicle id="veh_55" type="motorcycle" depart="87">
        <route edges="136822578 1174874706"/>
    </vehicle>
    <vehicle id="veh_11" type="car" depart="89">
        <route edges="775437708 917450543"/>
    </vehicle>
    <vehicle id="veh_56" type="motorcycle" depart="90">
        <route edges="1112806233 4588647"/>
    </vehicle>
    <vehicle id="jeepney_6" type="traditional_jeepney" depart="93">
        <route edges="1112806233 4588647"/>
    </vehicle>
    <vehicle id="veh_57" type="motorcycle" depart="95">
        <route edges="775437708 917450543"/>
    </vehicle>
    <vehicle id="veh_12" type="car" depart="97">
        <route edges="136822578 1174874706"/>
    </vehicle>
    <vehicle id="veh_58" type="motorcycle" depart="100">
        <route edges="136822578 1174874706"/>
    </vehicle>
    <vehicle id="veh_59" type="motorcycle" depart="102">
        <route edges="136822578 1174874706"/>
    </vehicle>
    <vehicle id="veh_151" type="bicycle" depart="104">
        <route edges="1112806233 4588647"/>
    </vehicle>
    <vehicle id="veh_60" type="motorcycle" depart="106">
        <route edges="775437708 917450543"/>
    </vehicle>
    <vehicle id="veh_61" type="motorcycle" depart="107">
        <route edges="136822578 1174874706"/>
    </vehicle>
    <vehicle id="jeepney_7" type="traditional_jeepney" depart="107">
        <route edges="-4588647 -917450542 1174874706"/>
    </vehicle>
    <vehicle id="veh_13" type="car" depart="108">
        <route edges="775437708 917450543"/>
    </vehicle>
    <vehicle id="veh_62" type="motorcycle" depart="112">
        <route edges="775437708 917450543"/>
    </vehicle>
    <vehicle id="veh_63" type="motorcycle" depart="115">
        <route edges="775437708 917450543"/>
    </vehicle>
    <vehicle id="veh_14" type="car" depart="119">
        <route edges="775437708 917450543"/>
    </vehicle>
    <vehicle id="veh_64" type="motorcycle" depart="120">
        <route edges="136822578 1174874706"/>
    </vehicle>
    <vehicle id="veh_152" type="bicycle" depart="120">
        <route edges="136822578 1174874706"/>
    </vehicle>
    <vehicle id="veh_15" type="car" depart="121">
        <route edges="775437708 917450543"/>
    </vehicle>
    <vehicle id="veh_65" type="motorcycle" depart="123">
        <route edges="136822578 1174874706"/>
    </vehicle>
    <vehicle id="veh_16" type="car" depart="126">
        <route edges="136822578 1174874706"/>
    </vehicle>
    <vehicle id="veh_66" type="motorcycle" depart="126">
        <route edges="775437708 917450543"/>
    </vehicle>
    <vehicle id="veh_67" type="motorcycle" depart="129">
        <route edges="775437708 917450543"/>
    </vehicle>
    <vehicle id="jeepney_8" type="traditional_jeepney" depart="131">
        <route edges="1112806233 4588647"/>
    </vehicle>
    <vehicle id="veh_17" type="car" depart="134">
        <route edges="136822578 1174874706"/>
    </vehicle>
    <vehicle id="veh_68" type="motorcycle" depart="136">
        <route edges="775437708 917450543"/>
    </vehicle>
    <vehicle id="veh_153" type="bicycle" depart="136">
        <route edges="775437708 917450543"/>
    </vehicle>
    <vehicle id="veh_18" type="car" depart="138">
        <route edges="775437708 917450543"/>
    </vehicle>
    <vehicle id="veh_69" type="motorcycle" depart="139">
        <route edges="775437708 917450543"/>
    </vehicle>
    <vehicle id="jeepney_9" type="traditional_jeepney" depart="141">
        <route edges="-4588647 -917450542 1174874706"/>
    </vehicle>
    <vehicle id="veh_70" type="motorcycle" depart="144">
        <route edges="1112806233 4588647"/>
    </vehicle>
    <vehicle id="veh_71" type="motorcycle" depart="145">
        <route edges="775437708 917450543"/>
    </vehicle>
    <vehicle id="veh_72" type="motorcycle" depart="148">
        <route edges="775437708 917450543"/>
    </vehicle>
    <vehicle id="veh_73" type="motorcycle" depart="150">
        <route edges="136822578 1174874706"/>
    </vehicle>
    <vehicle id="veh_74" type="motorcycle" depart="152">
        <route edges="136822578 1174874706"/>
    </vehicle>
    <vehicle id="veh_154" type="bicycle" depart="153">
        <route edges="775437708 917450543"/>
    </vehicle>
    <vehicle id="veh_19" type="car" depart="154">
        <route edges="136822578 1174874706"/>
    </vehicle>
    <vehicle id="veh_75" type="motorcycle" depart="154">
        <route edges="136822578 1174874706"/>
    </vehicle>
    <vehicle id="veh_76" type="motorcycle" depart="155">
        <route edges="136822578 1174874706"/>
    </vehicle>
    <vehicle id="veh_125" type="truck" depart="157">
        <route edges="775437708 917450543"/>
    </vehicle>
    <vehicle id="veh_77" type="motorcycle" depart="159">
        <route edges="136822578 1174874706"/>
    </vehicle>
    <vehicle id="jeepney_10" type="traditional_jeepney" depart="159">
        <route edges="1112806233 4588647"/>
    </vehicle>
    <vehicle id="veh_78" type="motorcycle" depart="160">
        <route edges="136822578 1174874706"/>
    </vehicle>
    <vehicle id="veh_20" type="car" depart="163">
        <route edges="1112806233 160192389"/>
    </vehicle>
    <vehicle id="veh_79" type="motorcycle" depart="163">
        <route edges="775437708 917450543"/>
    </vehicle>
    <vehicle id="veh_80" type="motorcycle" depart="167">
        <route edges="775437708 917450543"/>
    </vehicle>
    <vehicle id="veh_155" type="bicycle" depart="170">
        <route edges="775437708 917450543"/>
    </vehicle>
    <vehicle id="veh_81" type="motorcycle" depart="173">
        <route edges="775437708 917450543"/>
    </vehicle>
    <vehicle id="veh_82" type="motorcycle" depart="177">
        <route edges="136822578 1174874706"/>
    </vehicle>
    <vehicle id="jeepney_11" type="traditional_jeepney" depart="177">
        <route edges="1112806233 4588647"/>
    </vehicle>
    <vehicle id="veh_21" type="car" depart="178">
        <route edges="775437708 917450543"/>
    </vehicle>
    <vehicle id="veh_83" type="motorcycle" depart="180">
        <route edges="775437708 917450543"/>
    </vehicle>
    <vehicle id="veh_84" type="motorcycle" depart="182">
        <route edges="136822578 1174874706"/>
    </vehicle>
    <vehicle id="veh_85" type="motorcycle" depart="183">
        <route edges="136822578 1174874706"/>
    </vehicle>
    <vehicle id="veh_22" type="car" depart="186">
        <route edges="1112806233 4588647"/>
    </vehicle>
    <vehicle id="veh_86" type="motorcycle" depart="187">
        <route edges="136822578 1174874706"/>
    </vehicle>
    <vehicle id="jeepney_12" type="traditional_jeepney" depart="187">
        <route edges="-4588647 -917450542 1174874706"/>
    </vehicle>
    <vehicle id="veh_87" type="motorcycle" depart="190">
        <route edges="1112806233 160192389"/>
    </vehicle>
    <vehicle id="veh_156" type="bicycle" depart="192">
        <route edges="136822578 1174874706"/>
    </vehicle>
    <vehicle id="veh_88" type="motorcycle" depart="194">
        <route edges="136822578 1174874706"/>
    </vehicle>
    <vehicle id="veh_89" type="motorcycle" depart="197">
        <route edges="136822578 1174874706"/>
    </vehicle>
    <vehicle id="veh_90" type="motorcycle" depart="197">
        <route edges="775437708 917450543"/>
    </vehicle>
    <vehicle id="veh_23" type="car" depart="198">
        <route edges="775437708 917450543"/>
    </vehicle>
    <vehicle id="veh_91" type="motorcycle" depart="198">
        <route edges="136822578 1174874706"/>
    </vehicle>
    <vehicle id="veh_92" type="motorcycle" depart="199">
        <route edges="775437708 917450543"/>
    </vehicle>
    <vehicle id="veh_93" type="motorcycle" depart="201">
        <route edges="-4588647 160192389"/>
    </vehicle>
    <vehicle id="jeepney_13" type="traditional_jeepney" depart="202">
        <route edges="-4588647 -917450542 1174874706"/>
    </vehicle>
    <vehicle id="veh_94" type="motorcycle" depart="204">
        <route edges="775437708 917450543"/>
    </vehicle>
    <vehicle id="veh_24" type="car" depart="206">
        <route edges="1112806233 160192389"/>
    </vehicle>
    <vehicle id="veh_95" type="motorcycle" depart="207">
        <route edges="136822578 1174874706"/>
    </vehicle>
    <vehicle id="veh_96" type="motorcycle" depart="211">
        <route edges="136822578 1174874706"/>
    </vehicle>
    <vehicle id="veh_97" type="motorcycle" depart="213">
        <route edges="775437708 917450543"/>
    </vehicle>
    <vehicle id="veh_25" type="car" depart="214">
        <route edges="136822578 1174874706"/>
    </vehicle>
    <vehicle id="veh_157" type="bicycle" depart="217">
        <route edges="775437708 917450543"/>
    </vehicle>
    <vehicle id="veh_98" type="motorcycle" depart="218">
        <route edges="136822578 1174874706"/>
    </vehicle>
    <vehicle id="jeepney_14" type="traditional_jeepney" depart="218">
        <route edges="-4588647 -917450542 1174874706"/>
    </vehicle>
    <vehicle id="veh_99" type="motorcycle" depart="219">
        <route edges="775437708 917450543"/>
    </vehicle>
    <vehicle id="veh_26" type="car" depart="223">
        <route edges="136822578 1174874706"/>
    </vehicle>
    <vehicle id="veh_100" type="motorcycle" depart="223">
        <route edges="775437708 917450543"/>
    </vehicle>
    <vehicle id="veh_101" type="motorcycle" depart="225">
        <route edges="775437708 917450543"/>
    </vehicle>
    <vehicle id="veh_27" type="car" depart="229">
        <route edges="136822578 1174874706"/>
    </vehicle>
    <vehicle id="veh_102" type="motorcycle" depart="229">
        <route edges="136822578 1174874706"/>
    </vehicle>
    <vehicle id="veh_103" type="motorcycle" depart="231">
        <route edges="775437708 917450543"/>
    </vehicle>
    <vehicle id="veh_104" type="motorcycle" depart="232">
        <route edges="1112806233 160192389"/>
    </vehicle>
    <vehicle id="jeepney_15" type="traditional_jeepney" depart="232">
        <route edges="1112806233 4588647"/>
    </vehicle>
    <vehicle id="veh_28" type="car" depart="237">
        <route edges="136822578 1174874706"/>
    </vehicle>
    <vehicle id="veh_105" type="motorcycle" depart="237">
        <route edges="775437708 917450543"/>
    </vehicle>
    <vehicle id="veh_106" type="motorcycle" depart="240">
        <route edges="-4588647 160192389"/>
    </vehicle>
    <vehicle id="veh_107" type="motorcycle" depart="241">
        <route edges="136822578 1174874706"/>
    </vehicle>
    <vehicle id="veh_126" type="truck" depart="241">
        <route edges="775437708 917450543"/>
    </vehicle>
    <vehicle id="veh_158" type="bicycle" depart="241">
        <route edges="136822578 1174874706"/>
    </vehicle>
    <vehicle id="veh_108" type="motorcycle" depart="245">
        <route edges="136822578 1174874706"/>
    </vehicle>
    <vehicle id="veh_109" type="motorcycle" depart="245">
        <route edges="136822578 1174874706"/>
    </vehicle>
    <vehicle id="veh_29" type="car" depart="246">
        <route edges="136822578 1174874706"/>
    </vehicle>
    <vehicle id="veh_110" type="motorcycle" depart="249">
        <route edges="136822578 1174874706"/>
    </vehicle>
    <vehicle id="jeepney_16" type="traditional_jeepney" depart="249">
        <route edges="1112806233 4588647"/>
    </vehicle>
    <vehicle id="veh_111" type="motorcycle" depart="255">
        <route edges="775437708 917450543"/>
    </vehicle>
    <vehicle id="veh_30" type="car" depart="257">
        <route edges="136822578 1174874706"/>
    </vehicle>
    <vehicle id="veh_112" type="motorcycle" depart="257">
        <route edges="136822578 1174874706"/>
    </vehicle>
    <vehicle id="jeepney_17" type="traditional_jeepney" depart="257">
        <route edges="-4588647 -917450542 1174874706"/>
    </vehicle>
    <vehicle id="veh_159" type="bicycle" depart="260">
        <route edges="136822578 1174874706"/>
    </vehicle>
    <vehicle id="veh_113" type="motorcycle" depart="262">
        <route edges="775437708 917450543"/>
    </vehicle>
    <vehicle id="veh_114" type="motorcycle" depart="265">
        <route edges="136822578 1174874706"/>
    </vehicle>
    <vehicle id="veh_115" type="motorcycle" depart="266">
        <route edges="775437708 917450543"/>
    </vehicle>
    <vehicle id="veh_31" type="car" depart="270">
        <route edges="775437708 917450543"/>
    </vehicle>
    <vehicle id="veh_116" type="motorcycle" depart="272">
        <route edges="775437708 917450543"/>
    </vehicle>
    <vehicle id="jeepney_18" type="traditional_jeepney" depart="274">
        <route edges="1112806233 4588647"/>
    </vehicle>
    <vehicle id="veh_117" type="motorcycle" depart="275">
        <route edges="136822578 1174874706"/>
    </vehicle>
    <vehicle id="veh_118" type="motorcycle" depart="278">
        <route edges="775437708 917450543"/>
    </vehicle>
    <vehicle id="veh_160" type="bicycle" depart="279">
        <route edges="136822578 1174874706"/>
    </vehicle>
    <vehicle id="veh_119" type="motorcycle" depart="281">
        <route edges="136822578 1174874706"/>
    </vehicle>
    <vehicle id="veh_120" type="motorcycle" depart="283">
        <route edges="1112806233 160192389"/>
    </vehicle>
    <vehicle id="veh_121" type="motorcycle" depart="288">
        <route edges="775437708 917450543"/>
    </vehicle>
    <vehicle id="jeepney_19" type="traditional_jeepney" depart="290">
        <route edges="-4588647 -917450542 1174874706"/>
    </vehicle>
    <vehicle id="veh_122" type="motorcycle" depart="294">
        <route edges="136822578 1174874706"/>
    </vehicle>
    <vehicle id="veh_123" type="motorcycle" depart="295">
        <route edges="136822578 1174874706"/>
    </vehicle>
    <vehicle id="veh_215" type="motorcycle" depart="302">
        <route edges="1112806233 4588647"/>
    </vehicle>
    <vehicle id="veh_161" type="car" depart="306">
        <route edges="775437708 917450543"/>
    </vehicle>
    <vehicle id="veh_216" type="motorcycle" depart="310">
        <route edges="136822578 1174874706"/>
    </vehicle>
    <vehicle id="veh_162" type="car" depart="312">
        <route edges="775437708 917450543"/>
    </vehicle>
    <vehicle id="veh_217" type="motorcycle" depart="314">
        <route edges="775437708 917450543"/>
    </vehicle>
    <vehicle id="veh_218" type="motorcycle" depart="316">
        <route edges="775437708 917450543"/>
    </vehicle>
    <vehicle id="veh_163" type="car" depart="317">
        <route edges="136822578 1174874706"/>
    </vehicle>
    <vehicle id="veh_219" type="motorcycle" depart="319">
        <route edges="775437708 917450543"/>
    </vehicle>
    <vehicle id="jeepney_20" type="traditional_jeepney" depart="320">
        <route edges="1112806233 4588647"/>
    </vehicle>
    <vehicle id="veh_164" type="car" depart="322">
        <route edges="1112806233 4588647"/>
    </vehicle>
    <vehicle id="veh_165" type="car" depart="323">
        <route edges="136822578 1174874706"/>
    </vehicle>
    <vehicle id="veh_220" type="motorcycle" depart="325">
        <route edges="136822578 1174874706"/>
    </vehicle>
    <vehicle id="veh_166" type="car" depart="329">
        <route edges="136822578 1174874706"/>
    </vehicle>
    <vehicle id="veh_221" type="motorcycle" depart="329">
        <route edges="136822578 1174874706"/>
    </vehicle>
    <vehicle id="veh_222" type="motorcycle" depart="333">
        <route edges="136822578 1174874706"/>
    </vehicle>
    <vehicle id="veh_167" type="car" depart="334">
        <route edges="775437708 917450543"/>
    </vehicle>
    <vehicle id="veh_315" type="bicycle" depart="334">
        <route edges="1112806233 4588647"/>
    </vehicle>
    <vehicle id="veh_223" type="motorcycle" depart="335">
        <route edges="136822578 1174874706"/>
    </vehicle>
    <vehicle id="jeepney_21" type="traditional_jeepney" depart="335">
        <route edges="1112806233 4588647"/>
    </vehicle>
    <vehicle id="veh_224" type="motorcycle" depart="338">
        <route edges="775437708 917450543"/>
    </vehicle>
    <vehicle id="veh_168" type="car" depart="339">
        <route edges="775437708 917450543"/>
    </vehicle>
    <vehicle id="veh_169" type="car" depart="342">
        <route edges="136822578 1174874706"/>
    </vehicle>
    <vehicle id="veh_225" type="motorcycle" depart="342">
        <route edges="136822578 1174874706"/>
    </vehicle>
    <vehicle id="veh_226" type="motorcycle" depart="344">
        <route edges="136822578 1174874706"/>
    </vehicle>
    <vehicle id="jeepney_22" type="traditional_jeepney" depart="347">
        <route edges="1112806233 4588647"/>
    </vehicle>
    <vehicle id="veh_170" type="car" depart="350">
        <route edges="136822578 1174874706"/>
    </vehicle>
    <vehicle id="veh_227" type="motorcycle" depart="351">
        <route edges="136822578 1174874706"/>
    </vehicle>
    <vehicle id="veh_228" type="motorcycle" depart="353">
        <route edges="775437708 917450543"/>
    </vehicle>
    <vehicle id="veh_229" type="motorcycle" depart="356">
        <route edges="136822578 1174874706"/>
    </vehicle>
    <vehicle id="veh_171" type="car" depart="357">
        <route edges="136822578 1174874706"/>
    </vehicle>
    <vehicle id="veh_172" type="car" depart="360">
        <route edges="775437708 917450543"/>
    </vehicle>
    <vehicle id="jeepney_23" type="traditional_jeepney" depart="360">
        <route edges="-4588647 -917450542 1174874706"/>
    </vehicle>
    <vehicle id="veh_230" type="motorcycle" depart="361">
        <route edges="136822578 1174874706"/>
    </vehicle>
    <vehicle id="veh_231" type="motorcycle" depart="365">
        <route edges="775437708 917450543"/>
    </vehicle>
    <vehicle id="veh_316" type="bicycle" depart="365">
        <route edges="775437708 917450543"/>
    </vehicle>
    <vehicle id="veh_232" type="motorcycle" depart="368">
        <route edges="136822578 1174874706"/>
    </vehicle>
    <vehicle id="veh_173" type="car" depart="370">
        <route edges="775437708 917450543"/>
    </vehicle>
    <vehicle id="veh_233" type="motorcycle" depart="374">
        <route edges="136822578 1174874706"/>
    </vehicle>
    <vehicle id="veh_234" type="motorcycle" depart="377">
        <route edges="136822578 1174874706"/>
    </vehicle>
    <vehicle id="jeepney_24" type="traditional_jeepney" depart="378">
        <route edges="-4588647 -917450542 1174874706"/>
    </vehicle>
    <vehicle id="veh_174" type="car" depart="379">
        <route edges="775437708 917450543"/>
    </vehicle>
    <vehicle id="veh_235" type="motorcycle" depart="380">
        <route edges="775437708 917450543"/>
    </vehicle>
    <vehicle id="veh_236" type="motorcycle" depart="383">
        <route edges="775437708 917450543"/>
    </vehicle>
    <vehicle id="veh_237" type="motorcycle" depart="385">
        <route edges="136822578 1174874706"/>
    </vehicle>
    <vehicle id="veh_175" type="car" depart="386">
        <route edges="775437708 917450543"/>
    </vehicle>
    <vehicle id="veh_238" type="motorcycle" depart="387">
        <route edges="775437708 917450543"/>
    </vehicle>
    <vehicle id="veh_239" type="motorcycle" depart="388">
        <route edges="136822578 1174874706"/>
    </vehicle>
    <vehicle id="veh_317" type="bicycle" depart="390">
        <route edges="775437708 917450543"/>
    </vehicle>
    <vehicle id="veh_176" type="car" depart="392">
        <route edges="136822578 1174874706"/>
    </vehicle>
    <vehicle id="jeepney_25" type="traditional_jeepney" depart="393">
        <route edges="-4588647 -917450542 1174874706"/>
    </vehicle>
    <vehicle id="veh_240" type="motorcycle" depart="396">
        <route edges="136822578 1174874706"/>
    </vehicle>
    <vehicle id="veh_177" type="car" depart="399">
        <route edges="775437708 917450543"/>
    </vehicle>
    <vehicle id="veh_241" type="motorcycle" depart="404">
        <route edges="136822578 1174874706"/>
    </vehicle>
    <vehicle id="veh_178" type="car" depart="406">
        <route edges="136822578 1174874706"/>
    </vehicle>
    <vehicle id="veh_242" type="motorcycle" depart="407">
        <route edges="1112806233 4588647"/>
    </vehicle>
    <vehicle id="veh_243" type="motorcycle" depart="408">
        <route edges="1112806233 160192389"/>
    </vehicle>
    <vehicle id="veh_179" type="car" depart="411">
        <route edges="775437708 917450543"/>
    </vehicle>
    <vehicle id="veh_244" type="motorcycle" depart="411">
        <route edges="136822578 1174874706"/>
    </vehicle>
    <vehicle id="veh_245" type="motorcycle" depart="413">
        <route edges="1112806233 4588647"/>
    </vehicle>
    <vehicle id="jeepney_26" type="traditional_jeepney" depart="413">
        <route edges="-4588647 -917450542 1174874706"/>
    </vehicle>
    <vehicle id="veh_246" type="motorcycle" depart="417">
        <route edges="136822578 1174874706"/>
    </vehicle>
    <vehicle id="veh_180" type="car" depart="418">
        <route edges="136822578 1174874706"/>
    </vehicle>
    <vehicle id="veh_247" type="motorcycle" depart="419">
        <route edges="1112806233 4588647"/>
    </vehicle>
    <vehicle id="veh_248" type="motorcycle" depart="420">
        <route edges="136822578 1174874706"/>
    </vehicle>
    <vehicle id="veh_249" type="motorcycle" depart="422">
        <route edges="136822578 1174874706"/>
    </vehicle>
    <vehicle id="veh_181" type="car" depart="425">
        <route edges="775437708 917450543"/>
    </vehicle>
    <vehicle id="veh_250" type="motorcycle" depart="426">
        <route edges="136822578 1174874706"/>
    </vehicle>
    <vehicle id="jeepney_27" type="traditional_jeepney" depart="426">
        <route edges="-4588647 -917450542 1174874706"/>
    </vehicle>
    <vehicle id="veh_182" type="car" depart="431">
        <route edges="775437708 917450543"/>
    </vehicle>
    <vehicle id="veh_318" type="bicycle" depart="431">
        <route edges="136822578 1174874706"/>
    </vehicle>
    <vehicle id="veh_251" type="motorcycle" depart="432">
        <route edges="1112806233 160192389"/>
    </vehicle>
    <vehicle id="veh_183" type="car" depart="436">
        <route edges="136822578 1174874706"/>
    </vehicle>
    <vehicle id="veh_252" type="motorcycle" depart="439">
        <route edges="775437708 917450543"/>
    </vehicle>
    <vehicle id="veh_184" type="car" depart="444">
        <route edges="-4588647 -917450542 1174874706"/>
    </vehicle>
    <vehicle id="veh_253" type="motorcycle" depart="446">
        <route edges="136822578 1174874706"/>
    </vehicle>
    <vehicle id="veh_254" type="motorcycle" depart="449">
        <route edges="1112806233 160192389"/>
    </vehicle>
    <vehicle id="veh_185" type="car" depart="450">
        <route edges="136822578 1174874706"/>
    </vehicle>
    <vehicle id="veh_255" type="motorcycle" depart="451">
        <route edges="775437708 917450543"/>
    </vehicle>
    <vehicle id="jeepney_28" type="traditional_jeepney" depart="452">
        <route edges="1112806233 4588647"/>
    </vehicle>
    <vehicle id="veh_256" type="motorcycle" depart="455">
        <route edges="136822578 1174874706"/>
    </vehicle>
    <vehicle id="veh_294" type="truck" depart="455">
        <route edges="136822578 1174874706"/>
    </vehicle>
    <vehicle id="veh_186" type="car" depart="456">
        <route edges="1112806233 4588647"/>
    </vehicle>
    <vehicle id="veh_257" type="motorcycle" depart="456">
        <route edges="775437708 917450543"/>
    </vehicle>
    <vehicle id="veh_258" type="motorcycle" depart="458">
        <route edges="775437708 917450543"/>
    </vehicle>
    <vehicle id="veh_259" type="motorcycle" depart="459">
        <route edges="136822578 1174874706"/>
    </vehicle>
    <vehicle id="veh_187" type="car" depart="460">
        <route edges="775437708 917450543"/>
    </vehicle>
    <vehicle id="veh_260" type="motorcycle" depart="464">
        <route edges="136822578 1174874706"/>
    </vehicle>
    <vehicle id="veh_261" type="motorcycle" depart="465">
        <route edges="136822578 1174874706"/>
    </vehicle>
    <vehicle id="veh_188" type="car" depart="466">
        <route edges="136822578 1174874706"/>
    </vehicle>
    <vehicle id="veh_319" type="bicycle" depart="468">
        <route edges="775437708 917450543"/>
    </vehicle>
    <vehicle id="veh_262" type="motorcycle" depart="470">
        <route edges="136822578 1174874706"/>
    </vehicle>
    <vehicle id="jeepney_29" type="traditional_jeepney" depart="470">
        <route edges="-4588647 -917450542 1174874706"/>
    </vehicle>