<?xml version='1.0' encoding='UTF-8'?>
<routes xmlns:xsi="http://www.w3.org/2001/XMLSchema-instance" xsi:noNamespaceSchemaLocation="http://sumo.dlr.de/xsd/routes_file.xsd">
  <vehicle id="jeepney_1" type="traditional_jeepney" depart="0">
        <route edges="29377703#0 29377703#1 29377703#2 29377703#3 29377703#4 303412427#0 303412427#1 303412427#2 303412427#3 303412427#4 303412427#5 303412427#6 303412427#7 303412427#8 303412427#9 303412427#10 303412427#11 303412427#12 303412427#13 303412427#14 303412427#15 303412427#16 303412427#17 303412427#18 303412427#19 924607338 924607337#0 924607337#1 924607337#2 924607337#3 924607337#4 615456195 615456193#0 615456193#1 615456193#2"/>
  </vehicle>
  <vehicle id="modernjeepney_1" type="modern_jeepney" depart="200">
        <route edges="29377703#0 29377703#1 29377703#2 29377703#3 29377703#4 303412427#0 303412427#1 303412427#2 303412427#3 303412427#4 303412427#5 303412427#6 303412427#7 303412427#8 303412427#9 303412427#10 303412427#11 303412427#12 303412427#13 303412427#14 303412427#15 303412427#16 303412427#17 303412427#18 303412427#19 924607338 924607337#0 924607337#1 924607337#2 924607337#3 924607337#4 615456195 615456193#0 615456193#1 615456193#2"/>
  </vehicle>
</routes>