<?xml version="1.0" encoding="UTF-8"?>

<!-- generated on 2024-11-10 19:10:17 by Eclipse SUMO duarouter Version 1.20.0
<configuration xmlns:xsi="http://www.w3.org/2001/XMLSchema-instance" xsi:noNamespaceSchemaLocation="http://sumo.dlr.de/xsd/duarouterConfiguration.xsd">

    <input>
        <net-file value="edited.net.xml"/>
        <route-files value="vehicle_routes/trips.xml"/>
    </input>

    <output>
        <output-file value="vehicle_routes/validationmodern11-1.rou.xml"/>
    </output>

    <report>
        <ignore-errors value="true"/>
    </report>

</configuration>
-->

<routes xmlns:xsi="http://www.w3.org/2001/XMLSchema-instance" xsi:noNamespaceSchemaLocation="http://sumo.dlr.de/xsd/routes_file.xsd">
    <vehicle id="motorcycle_0" type="motorcycle" depart="3.00">
        <route edges="29377703#1 29377703#2 29377703#3 29377703#4 303412427#0 303412427#1 303412427#2 303412427#3 303412427#4 303412427#5 303412427#6 303412427#7 303412427#8 303412427#9 303412427#10 303412427#11 303412427#12 303412427#13 303412427#14 303412427#15 303412427#16 303412427#17 303412427#18 303412427#19 924607338 924607337#0 924607337#1 924607337#2 924607337#3 924607337#4 615456195 615456193#0 615456193#1 615456193#2 615478345 615478344#0 615478344#1 368461882#0 368461882#1 368461882#2 694268908 923261416 694268909#0 694268909#1 1176045778 82694445#0 82694445#1 82694445#2 1176045777 82694458#0 82694458#1 575729552#0 575729552#1 4086429 4332731 745183365#0 -575729108#4 -575729108#3 -575729108#2 -575729108#1 -575729555 -940627086 -4332734#7 -4332734#6 -4332734#5 -4332734#4 -4332734#3 -4332734#2 -4332734#1 -4332734#0 -4478182 -48630242#3 -48630242#2 -48630242#1 4243614#1 685156794#0 685156794#1 706706674#0 820063579#0 820063579#1 107396681#0 107396681#4 107396681#5 107396681#6 107396681#7 1148489399#0 1148489399#1 1148489399#2 1018627463 -1076442002 -4588647#5 -4588647#4 -4588647#3 -4588647#0 -917450542 1174874706 1182394700 136822582 1174874705 161754856 917450546#0 917450546#2 4637649 1158575268 1156612124 161754854#0 161754854#1 161754854#2 136822571#1 136822571#2 136822571#3 136822574 136822584 369686026 121188635 332624272 126342419 757990549 1074607189#0 1074607189#1 119883577#1 119883577#4 119883577#5 119883577#6 119883577#7 119883577#8 119883577#9 119883577#10 5019469#0 5019469#1 5019469#3 5019469#4 5019469#5 -5019469#5"/>
    </vehicle>
    <vehicle id="motorcycle_1" type="motorcycle" depart="3.00">
        <route edges="29377703#1 -29377703#1 -29377703#0 -1069829005#2 -1069829005#1 -1069829005#0 -15785418#7 -15785418#6 -15785418#5 -15785418#4 -15785418#3 -15785418#2 -15785418#1 -15785418#0 15785418#0 15785418#1 15785418#2 15785418#3 15785418#4"/>
    </vehicle>
    <vehicle id="motorcycle_2" type="motorcycle" depart="3.00">
        <route edges="29377703#1 29377703#2 29377703#3 29377703#4 303412427#0 303412427#1 303412427#2 303412427#3 303412427#4 303412427#5 303412427#6 303412427#7 303412427#8 303412427#9 303412427#10 303412427#11 303412427#12 303412427#13 303412427#14 303412427#15 303412427#16 303412427#17 303412427#18 303412427#19 924607338 924607337#0 924607337#1 924607337#2 924607337#3 924607337#4 615456195 615456193#0 615456193#1 615456193#2 615478345 615478344#0 615478344#1 368461882#0 368461882#1 368461882#2 694268908 923261416 694268909#0 694268909#1 1176045778 82694445#0 82694445#1 82694445#2 1176045777 82694458#0 82694458#1 575729552#0 575729552#1 4086429 4332731 745183365#0 -575729108#4 -575729108#3 -575729108#2 -575729108#1 -575729555 -940627086 -4332734#7 -4332734#6 -4332734#5 -4332734#4 -4332734#3 -4332734#2 -4332734#1 -4332734#0 -4478182 -48630242#3 -48630242#2 -48630242#1 4243614#1 685156794#0 685156794#1 706706674#0 820063579#0 820063579#1 107396681#0 107396681#4 107396681#5 107396681#6 107396681#7 1148489399#0 1148489399#1 1148489399#2 1018627463 -1076442002 -4588647#5 -4588647#4 -4588647#3 -4588647#0 -917450542 1174874706 1182394700 136822582 1174874705 161754856 917450546#0 917450546#2 4637649 1158575268 1156612124 161754854#0 161754854#1 161754854#2 136822587#0 136822587#1 136822587#2 136822587#3 161754855#0 160192341 -160192341"/>
    </vehicle>
    <vehicle id="motorcycle_3" type="motorcycle" depart="3.00">
        <route edges="29377703#1 29377703#2 29377703#3 29377703#4 303412427#0 303412427#1 303412427#2 303412427#3 303412427#4 303412427#5 303412427#6 303412427#7 303412427#8 303412427#9 303412427#10 303412427#11 303412427#12 303412427#13 303412427#14 303412427#15 303412427#16 303412427#17 303412427#18 303412427#19 924607338 924607337#0 924607337#1 924607337#2 924607337#3 924607337#4 615456195 615456193#0 615456193#1 615456193#2 615478345 615478344#0 615478344#1 368461882#0 368461882#1 368461882#2 -368461882#2 -368461882#1 -368461882#0 -615478344#1 -615478344#0 -615478345 -615456193#2 -615456193#1 -615456193#0 154644778#0 154644778#1"/>
    </vehicle>
    <vehicle id="motorcycle_4" type="motorcycle" depart="3.00">
        <route edges="29377703#1 29377703#2 29377703#3 29377703#4 303412427#0 303412427#1 303412427#2 303412427#3 303412427#4 303412427#5 303412427#6 303412427#7 303412427#8 303412427#9 303412427#10 303412427#11 303412427#12 303412427#13 303412427#14 303412427#15 303412427#16 303412427#17 303412427#18 303412427#19 924607338 924607337#0 924607337#1 924607337#2 924607337#3 924607337#4 615456195 615456193#0 615456193#1 615456193#2 615478345 615478344#0 615478344#1 368461882#0 368461882#1 368461882#2 694268908 923261416 694268909#0 694268909#1 1176045778 82694445#0 82694445#1 82694445#2 1176045777 82694458#0 82694458#1 575729552#0 575729552#1 4086429 4332731 745183365#0 -575729108#4 -575729108#3 -575729108#2 -575729108#1 -575729555 -940627086 -4332734#7 -4332734#6 -4332734#5 -4332734#4 -4332734#3 -4332734#2 -4332734#1 -4332734#0 -4478182 -48630242#3 -48630242#2 -48630242#1 4243614#1 685156794#0 685156794#1 706706674#0 820063579#0 820063579#1 107396681#0 107396681#4 107396681#5 107396681#6 107396681#7 1148489399#0 1148489399#1 1148489399#2 1018627463 -1076442002 -4588647#5 -4588647#4 -4588647#3 -4588647#0 -917450542 1174874706 1182394700 136822582 1174874705 161754856 917450546#0 917450546#2 4637649 1158575268 1156612124 161754854#0 161754854#1 161754854#2 136822571#1 136822571#2 136822571#3 136822574 136822584 369686026 121188635 332624272 126342419 757990549 1074607189#0 1074607189#1 119883577#1 119883577#4 119883577#5 119883577#6 119883577#7 119883577#8 119883577#9 119883577#10 5019952#0 5019952#1 5019952#2 5019952#4 5019952#5 825090426 704746733#0 9160986#0 9160986#1 9160986#2 9160986#3 945948204 820063589 54338771#0 54338771#1 1072788795 29170656#0 29170656#1 29170656#2 -29170656#2"/>
    </vehicle>
    <vehicle id="bicycle_0" type="bicycle" depart="3.00">
        <route edges="29377703#1 29377703#2 29377703#3 29377703#4 303412427#0 303412427#1 303412427#2 303412427#3 303412427#4 303412427#5 303412427#6 303412427#7 303412427#8 303412427#9 303412427#10 303412427#11 303412427#12 303412427#13 303412427#14 303412427#15 303412427#16 303412427#17 303412427#18 303412427#19 924607338 924607337#0 924607337#1 924607337#2 924607337#3 924607337#4 615456195 615456193#0 615456193#1 615456193#2 615478345 615478344#0 615478344#1 368461882#0 368461882#1 368461882#2 694268908 923261416 694268909#0 694268909#1 1176045778 82694445#0 82694445#1 82694445#2 1176045777 82694458#0 82694458#1 575729552#0 575729552#1 4086429 4332731 745183365#0 -575729108#4 -575729108#3 -575729108#2 -575729108#1 -575729555 -940627086 -4332734#7 -4332734#6 -4332734#5 -4332734#4 -4332734#3 -4332734#2 -4332734#1 -4332734#0 -4478182 -48630242#3 -48630242#2 -48630242#1 4243614#1 685156794#0 685156794#1 706706674#0 820063579#0 820063579#1 107396681#0 107396681#4 107396681#5 107396681#6 107396681#7 1148489399#0 1148489399#1 1148489399#2 1018627463 -1076442002 -4588647#5 -4588647#4 -4588647#3 -4588647#0 -917450542 1174874706 1182394700 136822582 1174874705 161754856 917450546#0 917450546#2 4637649 1158575268 1156612124 161754854#0 161754854#1 161754854#2 136822571#1 136822571#2 136822571#3 136822574 136822584 369686026 121188635 332624272 126342419 757990549 1074607189#0 1074607189#1 119883577#1 119883577#4 119883577#5 119883577#6 119883577#7 119883577#8 119883577#9 119883577#10 5019469#0 5019469#1 836645499 -836645498 836645498 -836645499"/>
    </vehicle>
    <vehicle id="bicycle_1" type="bicycle" depart="3.00">
        <route edges="29377703#1 29377703#2 29377703#3 29377703#4 303412427#0 303412427#1 303412427#2 303412427#3 303412427#4 303412427#5 303412427#6 303412427#7 303412427#8 303412427#9 303412427#10 303412427#11 303412427#12 303412427#13 303412427#14 303412427#15 303412427#16 303412427#17 303412427#18 303412427#19 924607338 924607337#0 924607337#1 924607337#2 924607337#3 924607337#4 615456195 615456193#0 615456193#1 615456193#2 615478345 615478344#0 615478344#1 368461882#0 368461882#1 368461882#2 694268908 923261416 694268909#0 694268909#1 1176045778 82694445#0 82694445#1 82694445#2 1176045777 82694458#0 82694458#1 575729552#0 575729552#1 4086429 4332731 745183365#0 -575729108#4 -575729108#3 -575729108#2 -575729108#1 -575729555 -940627086 -4332734#7 -4332734#6 -4332734#5 -4332734#4 -4332734#3 -4332734#2 -4332734#1 -4332734#0 -4478182 -48630242#3 24248542 1068888837 563377900 -563377900 -1068888837 -24248542"/>
    </vehicle>
    <vehicle id="bicycle_2" type="bicycle" depart="3.00">
        <route edges="29377703#1 29377703#2 29377703#3 29377703#4 303412427#0 303412427#1 303412427#2 303412427#3 303412427#4 303412427#5 303412427#6 303412427#7 303412427#8 303412427#9 303412427#10 303412427#11 303412427#12 303412427#13 303412427#14 303412427#15 303412427#16 303412427#17 303412427#18 303412427#19 924607338 924607337#0 924607337#1 924607337#2 924607337#3 924607337#4 615456195 615456193#0 615456193#1 615456193#2 615478345 615478344#0 615478344#1 368461882#0 368461882#1 368461882#2 694268908 923261416 694268909#0 694268909#1 1176045778 82694445#0 82694445#1 82694445#2 1176045777 82694458#0 82694458#1 575729552#0 575729552#1 4086429 4332731 745183365#0 -575729108#4 -575729108#3 -575729108#2 -575729108#1 -575729555 -940627086 -4332734#7 -4332734#6 -4332734#5 -4332734#4 -4332734#3 -4332734#2 -4332734#1 -4332734#0 -4478182 -48630242#3 -48630242#2 -48630242#1 4243614#1 685156794#0 685156794#1 706706674#0 820063579#0 820063579#1 107396681#0 107396681#4 107396681#5 107396681#6 107396681#7 1148489399#0 1148489399#1 1148489399#2 1018627463 -1076442002 -4588647#5 -4588647#4 -4588647#3 -4588647#0 -917450542 1174874706 1182394700 136822582 1174874705 -22751838#8 -22751838#7 -22751838#6 22751833"/>
    </vehicle>
    <vehicle id="car_0" type="car" depart="6.00">
        <route edges="303412427#1 303412427#2 303412427#3 -303412427#3 -303412427#2 -303412427#1 -303412427#0 15785493 697247928#1"/>
    </vehicle>
    <vehicle id="motorcycle_5" type="motorcycle" depart="6.00">
        <route edges="303412427#1 303412427#2 303412427#3 303412427#4 303412427#5 303412427#6 303412427#7 303412427#8 303412427#9 303412427#10 303412427#11 303412427#12 303412427#13 303412427#14 303412427#15 303412427#16 303412427#17 303412427#18 303412427#19 924607338 924607337#0 924607337#1 924607337#2 -924607337#2 -924607337#1 -924607337#0"/>
    </vehicle>
    <vehicle id="motorcycle_6" type="motorcycle" depart="6.00">
        <route edges="303412427#1 303412427#2 303412427#3 303412427#4 303412427#5 303412427#6 303412427#7 303412427#8 303412427#9 303412427#10 303412427#11 303412427#12 303412427#13 303412427#14 303412427#15 303412427#16 303412427#17 303412427#18 303412427#19 924607338 924607337#0 924607337#1 924607337#2 924607337#3 924607337#4 615456195 615456193#0 615456193#1 615456193#2 615478345 615478344#0 615478344#1 368461882#0 368461882#1 368461882#2 694268908 923261416 694268909#0 694268909#1 1176045778 82694445#0 82694445#1 82694445#2 1176045777 82694458#0 82694458#1 575729552#0 575729552#1 4086429 4332731 745183365#0 -575729108#4 -575729108#3 -575729108#2 -575729108#1 -575729555 -940627086 -4332734#7 -4332734#6 -4332734#5 -4332734#4 -4332734#3 -4332734#2 -4332734#1 -4332734#0 -4478182 -48630242#3 -48630242#2 -48630242#1 4243614#1 685156794#0 685156794#1 706706674#0 820063579#0 820063579#1 107396681#0 107396681#4 107396681#5 107396681#6 107396681#7 1148489399#0 1148489399#1 1148489399#2 1018627463 -1076442002 -4588647#5 -4588647#4 -4588647#3 -4588647#0 -917450542 1174874706 1182394700 136822582 1174874705 161754856 917450546#0 917450546#2 4637649 1158575268 1156612124 161754854#0 161754854#1 161754854#2 136822571#1 136822571#2 136822571#3 136822574 136822584 369686026 121188635 332624272 126342419 757990549 1074607189#0 1074607189#1 1074607188 940612553"/>
    </vehicle>
    <vehicle id="motorcycle_7" type="motorcycle" depart="6.00">
        <route edges="303412427#1 303412427#2 303412427#3 303412427#4 303412427#5 303412427#6 303412427#7 303412427#8 303412427#9 303412427#10 303412427#11 303412427#12 303412427#13 303412427#14 303412427#15 303412427#16 303412427#17 303412427#18 303412427#19 924607338 924607337#0 924607337#1 924607337#2 924607337#3 924607337#4 615456195 615456193#0 615456193#1 615456193#2 615478345 615478344#0 615478344#1 368461882#0 368461882#1 368461882#2 694268908 923261416 694268909#0 694268909#1 1176045778 82694445#0 82694445#1 82694445#2 1176045777 82694458#0 82694458#1 575729552#0 575729552#1 4086429 4332731 745183365#0 -575729108#4 -575729108#3 -575729108#2 -575729108#1 -575729555 -940627086 -4332734#7 -4332734#6 -4332734#5 -4332734#4 -4332734#3 -4332734#2 -4332734#1 -4332734#0 -4478182 -48630242#3 -48630242#2 -48630242#1 4243614#1 685156794#0 685156794#1 706706674#0 820063579#0 820063579#1 107396681#0 107396681#4 107396681#5 107396681#6 107396681#7 1148489399#0 1148489399#1 1148489399#2 1018627463 -1076442002 160192382#0 160192382#1 160192382#3 -160192382#3 -160192382#1 -160192382#0"/>
    </vehicle>
    <vehicle id="motorcycle_8" type="motorcycle" depart="6.00">
        <route edges="303412427#1 303412427#2 303412427#3 -303412427#3 -303412427#2 -303412427#1 -303412427#0 303412433#0 303412433#1 1069841145 -1069841145 -303412433#1"/>
    </vehicle>
    <vehicle id="motorcycle_9" type="motorcycle" depart="6.00">
        <route edges="303412427#1 303412427#2 303412427#3 303412427#4 303412427#5 303412427#6 303412427#7 303412427#8 303412427#9 303412427#10 303412427#11 303412427#12 303412427#13 303412427#14 303412427#15 303412427#16 303412427#17 303412427#18 303412427#19 924607338 924607337#0 924607337#1 924607337#2 924607337#3 924607337#4 615456195 615456193#0 615456193#1 615456193#2 615478345 615478344#0 615478344#1 368461882#0 368461882#1 368461882#2 694268908 923261416 694268909#0 694268909#1 1176045778 82694445#0 82694445#1 82694445#2 1176045777 82694458#0 82694458#1 575729552#0 575729552#1 4086429 4332731 745183365#0 -575729108#4 -575729108#3 -575729108#2 -575729108#1 -575729555 -940627086 -4332734#7 -4332734#6 -4332734#5 -4332734#4 -4332734#3 -4332734#2 -4332734#1 -4332734#0 -4478182 -48630242#3 -48630242#2 -48630242#1 4243614#1 685156794#0 685156794#1 706706674#0 820063579#0 820063579#1 107396681#0 107396681#4 107396681#5 107396681#6 107396681#7 1148489399#0 1148489399#1 1148489399#2 1018627463 -1076442002 -4588647#5 -4588647#4 -4588647#3 -4588647#0 -917450542 1174874706 1182394700 136822582 1174874705 161754856 917450546#0 917450546#2 4637649 1158575268 1156612124 161754854#0 161754854#1 161754854#2 136822571#1 136822571#2 136822571#3 136822574 136822584 369686026 118783737 1035321071#0 1035321071#1 1035321071#2 1035321071#3 1035321071#4 118783734#2 799741450 126342428"/>
    </vehicle>
    <vehicle id="motorcycle_10" type="motorcycle" depart="6.00">
        <route edges="303412427#1 303412427#2 303412427#3 303412427#4 303412427#5 303412427#6 303412427#7 303412427#8 303412427#9 303412427#10 303412427#11 303412427#12 303412427#13 303412427#14 303412427#15 303412427#16 303412427#17 303412427#18 303412427#19 924607338 924607337#0 924607337#1 924607337#2 924607337#3 924607337#4 615456195 615456193#0 615456193#1 615456193#2 615478345 615478344#0 615478344#1 368461882#0 368461882#1 368461882#2 694268908 923261416 694268909#0 694268909#1 1176045778 82694445#0 82694445#1 82694445#2 1176045777 82694458#0 82694458#1 575729552#0 575729552#1 4086429 4332731 745183365#0 -575729108#4 -575729108#3 -575729108#2 -575729108#1 -575729555 -940627086 -4332734#7 -4332734#6 -4332734#5 -4332734#4 -4332734#3 -4332734#2 -4332734#1 -4332734#0 -4478182 -48630242#3 -48630242#2 -48630242#1 4243614#1 685156794#0 685156794#1 706706674#0 820063579#0 820063579#1 107396681#0 107396681#4 107396681#5 107396681#6 107396681#7 1148489399#0 1148489399#1 1148489399#2 1018627463 -1076442002 -4588647#5 -4588647#4 -4588647#3 -4588647#0 -917450542 1174874706 1182394700 136822582 1174874705 161754856 917450546#0 917450546#2 4637649 1158575268 1156612124 161754854#0 161754854#1 161754854#2 136822587#0 136822587#1 136822587#2 136822587#3 161754855#0 160192341 1185666506 28404170#0 28404170#1"/>
    </vehicle>
    <vehicle id="motorcycle_11" type="motorcycle" depart="6.00">
        <route edges="303412427#1 303412427#2 303412427#3 303412427#4 303412427#5 303412427#6 303412427#7 303412427#8 303412427#9 303412427#10 303412427#11 303412427#12 303412427#13 303412427#14 303412427#15 303412427#16 303412427#17 303412427#18 303412427#19 924607338 924607337#0 924607337#1 924607337#2 924607337#3 924607337#4 615456195 615456193#0 615456193#1 615456193#2 615478345 615478344#0 615478344#1 368461882#0 368461882#1 368461882#2 694268908 923261416 694268909#0 694268909#1 1176045778 82694445#0 82694445#1 82694445#2 1176045777 82694458#0 82694458#1 575729552#0 575729552#1 4086429 4332731 745183365#0 -575729108#4 -575729108#3 -575729108#2 -575729108#1 -575729555 -940627086 -4332734#7 -4332734#6 -4332734#5 -4332734#4 -4332734#3 -4332734#2 -4332734#1 -4332734#0 -4478182 -48630242#3 -48630242#2 -48630242#1 4243614#1 685156794#0 685156794#1 706706674#0 820063579#0 820063579#1 107396681#0 107396681#4 107396681#5 107396681#6 107396681#7 1148489399#0 1148489399#1 1148489399#2 1018627463 -1076442002 -4588647#5 -4588647#4 -4588647#3 -4588647#0 -917450542 1174874706 1182394700 136822582 1174874705 161754856 917450546#0 917450546#2 4637649 1158575268 1156612124 161754854#0 161754854#1 161754854#2 136822571#1 136822571#2 136822571#3 136822574 136822584 369686026 121188635 332624272 126342419 757990549 1074607189#0 1074607189#1 119883577#1 119883577#4 119883577#5 119883577#6 119883577#7 119883577#8 119883577#9 119883577#10 5019952#0 5019952#1 5019952#2 5019952#4 5019952#5 825090426 704746733#0 9160986#0 9160986#1 9160986#2 9160986#3 945948204 820063589 820063588 -22751216#5 -22751224#4 -22751224#3 896605460 -28788646#0 28788646#0"/>
    </vehicle>
    <vehicle id="bicycle_3" type="bicycle" depart="6.00">
        <route edges="303412427#1 303412427#2 303412427#3 303412427#4 303412427#5 303412427#6 303412427#7 303412427#8 303412427#9 303412427#10 303412427#11 303412427#12 303412427#13 303412427#14 303412427#15 303412427#16 303412427#17 303412427#18 303412427#19 924607338 924607337#0 924607337#1 924607337#2 924607337#3 924607337#4 615456195 615456193#0 615456193#1 615456193#2 615478345 615478344#0 615478344#1 368461882#0 368461882#1 368461882#2 694268908 923261416 694268909#0 694268909#1 1176045778 82694445#0 82694445#1 82694445#2 1176045777 82694458#0 82694458#1 575729552#0 575729552#1 4086429 4332731 745183365#0 -575729108#4 -575729108#3 -575729108#2 -575729108#1 -575729555 -940627086 -4332734#7 -4332734#6 -4332734#5 -4332734#4 -4332734#3 -4332734#2 -4332734#1 -4332734#0 -4478182 -48630242#3 -48630242#2 -48630242#1 4243614#1 685156794#0 685156794#1 706706674#0 820063579#0 820063579#1 107396681#0 107396681#4 107396681#5 107396681#6 107396681#7 1148489399#0 1148489399#1 1148489399#2 1018627463 -1076442002 -4588647#5 -4588647#4 -4588647#3 -4588647#0 -917450542 1174874706 1182394700 136822582 1174874705 161754856 917450546#0 917450546#2 4637649 1158575268 1156612124 161754854#0 161754854#1 161754854#2 136822571#1 136822571#2 136822571#3 136822574 136822584 369686026 121188635 332624272 126342419 757990549 1074607189#0 1074607189#1 119883577#1 119883577#4 119883577#5 119883577#6 119883577#7 119883577#8 119883577#9 119883577#10 5019952#0 5019952#1 5019952#2 5019952#4 5019952#5 825090426 704746733#0 9160986#0 9160986#1 9160986#2 9160986#3 945948204 820063589 -176435844#7 -176435844#6 -176435844#5 -176435844#4 -176435844#3"/>
    </vehicle>
    <vehicle id="bicycle_4" type="bicycle" depart="6.00">
        <route edges="303412427#1 303412427#2 303412427#3 303412427#4 303412427#5 303412427#6 303412427#7 303412427#8 303412427#9 303412427#10 303412427#11 303412427#12 303412427#13 303412427#14 303412427#15 303412427#16 303412427#17 303412427#18 303412427#19 924607338 924607337#0 924607337#1 924607337#2 924607337#3 924607337#4 615456195 615456193#0 615456193#1 615456193#2 615478345 615478344#0 615478344#1 368461882#0 368461882#1 368461882#2 694268908 923261416 694268909#0 694268909#1 1176045778 82694445#0 82694445#1 82694445#2 1176045777 82694458#0 82694458#1 575729552#0 575729552#1 4086429 4332731 745183365#0 -575729108#4 -575729108#3 -575729108#2 -575729108#1 -575729555 -940627086 -4332734#7 -4332734#6 -4332734#5 -4332734#4 -4332734#3 -4332734#2 -4332734#1 -4332734#0 -4478182 -48630242#3 -48630242#2 -48630242#1 4243614#1 685156794#0 685156794#1 706706674#0 820063579#0 820063579#1 107396681#0 107396681#4 107396681#5 107396681#6 107396681#7 1148489399#0 1148489399#1 1148489399#2 1018627463 -1076442002 -4588647#5 -4588647#4 -4588647#3 -4588647#0 -917450542 1174874706 1182394700 136822582 1174874705 161754856 917450546#0 917450546#2 4637649 1158575268 1156612124 161754854#0 161754854#1 161754854#2 136822571#1 136822571#2 136822571#3 136822574 136822584 369686026 121188635 332624272 126342419 757990549 1074607189#0 1074607189#1 119883577#1 119883577#4 119883577#5 119883577#6 119883577#7 119883577#8 119883577#9 119883577#10 5019952#0 5019952#1 5019952#2 5019952#4 5019952#5 825090426 704746733#0 9160986#0 9160986#1 9160986#2 9160986#3 945948204 820063589 54338771#0 54338771#1 1072788795 29170656#0 894214206 -1086907966 29170628#1"/>
    </vehicle>
    <vehicle id="bicycle_5" type="bicycle" depart="6.00">
        <route edges="303412427#1 303412427#2 303412427#3 303412427#4 303412427#5 303412427#6 303412427#7 303412427#8 303412427#9 303412427#10 303412427#11 303412427#12 303412427#13 303412427#14 303412427#15 303412427#16 303412427#17 303412427#18 303412427#19 924607338 924607337#0 924607337#1 924607337#2 924607337#3 924607337#4 615456195 615456193#0 615456193#1 615456193#2 615478345 615478344#0 615478344#1 368461882#0 368461882#1 368461882#2 694268908 923261416 694268909#0 694268909#1 1176045778 82694445#0 82694445#1 82694445#2 1176045777 82694458#0 82694458#1 575729552#0 575729552#1 4086429 4332731 745183365#0 -575729108#4 -575729108#3 -575729108#2 -575729108#1 -575729555 -940627086 -4332734#7 -4332734#6 -4332734#5 -4332734#4 -4332734#3 -4332734#2 -4332734#1 -4332734#0 -4478182 -48630242#3 -48630242#2 24158359#0 24158359#1 -24158358#1 -24158358#0 24247741 729164041#0"/>
    </vehicle>
    <vehicle id="bicycle_6" type="bicycle" depart="6.00">
        <route edges="303412427#1 303412427#2 303412427#3 303412427#4 303412427#5 303412427#6 303412427#7 303412427#8 303412427#9 303412427#10 303412427#11 303412427#12 303412427#13 303412427#14 303412427#15 303412427#16 303412427#17 303412427#18 303412427#19 924607338 924607337#0 924607337#1 924607337#2 924607337#3 924607337#4 615456195 615456193#0 615456193#1 615456193#2 615478345 615478344#0 615478344#1 368461882#0 368461882#1 368461882#2 694268908 923261416 694268909#0 694268909#1 1176045778 82694445#0 82694445#1 82694445#2 1176045777 82694458#0 82694458#1 575729552#0 575729552#1 4086429 4332731 745183365#0 -575729108#4 -575729108#3 -575729108#2 -575729108#1 -575729555 -940627086 -24509303#5 24248438#0 -24248438#0"/>
    </vehicle>
    <vehicle id="motorcycle_12" type="motorcycle" depart="12.00">
        <route edges="303412427#2 303412427#3 303412427#4 303412427#5 303412427#6 303412427#7 303412427#8 303412427#9 303412427#10 303412427#11 303412427#12 303412427#13 303412427#14 303412427#15 303412427#16 303412427#17 303412427#18 303412427#19 924607338 924607337#0 924607337#1 924607337#2 924607337#3 924607337#4 615456195 615456193#0 615456193#1 615456193#2 615478345 615478344#0 615478344#1 368461882#0 368461882#1 368461882#2 694268908 923261416 694268909#0 694268909#1 1176045778 82694445#0 82694445#1 82694445#2 1176045777 82694458#0 82694458#1 575729552#0 575729552#1 4086429 4332731 745183365#0 -575729108#4 -575729108#3 -575729108#2 -575729108#1 -575729555 -940627086 -24509303#5 -24509303#4 -24509303#3 -24509303#2 -24509303#1 -24509303#0 24509303#0"/>
    </vehicle>
    <vehicle id="motorcycle_13" type="motorcycle" depart="12.00">
        <route edges="303412427#2 303412427#3 303412427#4 303412427#5 303412427#6 303412427#7 303412427#8 303412427#9 303412427#10 303412427#11 303412427#12 303412427#13 303412427#14 303412427#15 303412427#16 303412427#17 303412427#18 303412427#19 924607338 924607337#0 924607337#1 924607337#2 924607337#3 924607337#4 615456195 615456193#0 615456193#1 615456193#2 615478345 615478344#0 615478344#1 368461882#0 368461882#1 368461882#2 694268908 923261416 694268909#0 694268909#1 1176045778 82694445#0 82694445#1 82694445#2 1176045777 82694458#0 82694458#1 575729552#0 575729552#1 4086429 4332731 745183365#0 -575729108#4 -575729108#3 -575729108#2 -575729108#1 -575729555 -940627086 -4332734#7 -4332734#6 -4332734#5 -4332734#4 -4332734#3 -4332734#2 -4332734#1 -4332734#0 -4478182 -48630242#3 -48630242#2 -48630242#1 4243614#1 685156794#0 685156794#1 706706674#0 820063579#0 820063579#1 107396681#0 107396681#4 107396681#5 107396681#6 107396681#7 1148489399#0 1148489399#1 1148489399#2 1018627463 -1076442002 -4588647#5 -4588647#4 -4588647#3 -4588647#0 -917450542 1174874706 1182394700 136822582 1174874705 161754856 917450546#0 917450546#2 4637649 1158575268 1156612124 161754854#0 161754854#1 161754854#2 136822571#1 136822571#2 136822571#3 136822574 136822584 369686026 121188635 332624272 126342419 757990549 1074607189#0 1074607189#1 119883577#1 119883577#4 119883577#5 119883577#6 119883577#7 119883577#8 119883577#9 119883577#10 5019469#0 5019469#1 836645499 -836645498 836645498 -836645499"/>
    </vehicle>
    <vehicle id="motorcycle_14" type="motorcycle" depart="12.00">
        <route edges="303412427#2 303412427#3 -303412427#3 -303412427#2 -303412427#1 -303412427#0 303412427#0 303412427#1"/>
    </vehicle>
    <vehicle id="motorcycle_15" type="motorcycle" depart="12.00">
        <route edges="303412427#2 303412427#3 303412427#4 303412427#5 303412427#6 303412427#7 303412427#8 303412427#9 303412427#10 303412427#11 303412427#12 303412427#13 303412427#14 303412427#15 303412427#16 303412427#17 303412427#18 303412427#19 924607338 924607337#0 924607337#1 924607337#2 924607337#3 924607337#4 615456195 615456193#0 615456193#1 615456193#2 615478345 615478344#0 615478344#1 368461882#0 368461882#1 368461882#2 694268908 923261416 694268909#0 694268909#1 1176045778 82694445#0 82694445#1 82694445#2 1176045777 82694458#0 82694458#1 575729552#0 575729552#1 4086429 4332731 745183365#0 -575729108#4 -575729108#3 -575729108#2 -575729108#1 -575729555 -940627086 -24509303#5 24248438#0 -24248438#0"/>
    </vehicle>
    <vehicle id="motorcycle_16" type="motorcycle" depart="12.00">
        <route edges="303412427#2 303412427#3 303412427#4 303412427#5 303412427#6 303412427#7 303412427#8 303412427#9 303412427#10 303412427#11 303412427#12 303412427#13 303412427#14 303412427#15 303412427#16 303412427#17 303412427#18 303412427#19 924607338 924607337#0 924607337#1 924607337#2 924607337#3 924607337#4 615456195 615456193#0 615456193#1 615456193#2 615478345 615478344#0 615478344#1 368461882#0 368461882#1 368461882#2 694268908 923261416 694268909#0 694268909#1 1176045778 82694445#0 82694445#1 82694445#2 1176045777 82694458#0 82694458#1 575729552#0 575729552#1 4086429 4332731 745183365#0 -575729108#4 -575729108#3 -575729108#2 -575729108#1 -575729555 -940627086 -4332734#7 -4332734#6 -4332734#5 -4332734#4 -4332734#3 -4332734#2 -4332734#1 -4332734#0 -4478182 -48630242#3 -48630242#2 -48630242#1 4243614#1 685156794#0 685156794#1 706706674#0 820063579#0 820063579#1 107396681#0 107396681#4 107396681#5 107396681#6 107396681#7 1148489399#0 1148489399#1 1148489399#2 1018627463 -1076442002 -4588647#5 -4588647#4 -4588647#3 -4588647#0 -917450542 1174874706 1182394700 136822582 1174874705 161754856 917450546#0 917450546#2 4637649 1158575268 1156612124 161754854#0 161754854#1 161754854#2 136822571#1 136822571#2 136822571#3 136822574 136822584 369686026 118783737 1035321071#0 1035321071#1 1035321071#2 1035321071#3 1035321071#4 118783734#2 799741450 126342420#0 126342420#1 126342420#2 126342420#3 126342420#4 38426188 28788664#0"/>
    </vehicle>
    <vehicle id="motorcycle_17" type="motorcycle" depart="12.00">
        <route edges="303412427#2 303412427#3 303412427#4 303412427#5 303412427#6 303412427#7 303412427#8 303412427#9 303412427#10 303412427#11 303412427#12 303412427#13 303412427#14 303412427#15 303412427#16 303412427#17 303412427#18 303412427#19 924607338 924607337#0 924607337#1 924607337#2 -924607337#2 -924607337#1 -924607337#0 -924607338 -303412427#19 -303412427#18 -303412427#17 -303412427#16 -303412427#15"/>
    </vehicle>
    <vehicle id="motorcycle_18" type="motorcycle" depart="12.00">